REMARK  Name = null
REMARK  6 active torsions:
REMARK  status: ('A' for Active; 'I' for Inactive)
REMARK    1  A    between atoms: C_6  and  O_8
REMARK    2  A    between atoms: O_8  and  C_9
REMARK    3  A    between atoms: C_12  and  C_35
REMARK    4  A    between atoms: C_14  and  O_15
REMARK    5  A    between atoms: O_15  and  C_16
REMARK    6  A    between atoms: C_23  and  C_27
REMARK                            x       y       z     vdW  Elec       q    Type
REMARK                         _______ _______ _______ _____ _____    ______ ____
ROOT
ATOM      1  C   UNL     1      -1.429  -1.650   0.000  0.00  0.00    +0.000 C 
ATOM      2  C   UNL     1      -2.143  -1.238   0.000  0.00  0.00    +0.000 C 
ATOM      3  C   UNL     1      -2.143  -0.412   0.000  0.00  0.00    +0.000 C 
ATOM      4  C   UNL     1      -1.429   0.000   0.000  0.00  0.00    +0.000 C 
ATOM      5  O   UNL     1      -0.715  -0.412   0.000  0.00  0.00    +0.000 OA
ATOM      6  C   UNL     1      -0.715  -1.238   0.000  0.00  0.00    +0.000 C 
ATOM      7  O   UNL     1      -2.858   0.000   0.000  0.00  0.00    +0.000 OA
ATOM      8  O   UNL     1      -2.858  -1.650   0.000  0.00  0.00    +0.000 OA
ENDROOT
BRANCH   4   9
ATOM      9  C   UNL     1      -1.429   0.825   0.000  0.00  0.00    +0.000 C 
ATOM     10  O   UNL     1      -0.715   1.238   0.000  0.00  0.00    +0.000 OA
ENDBRANCH   4   9
BRANCH   1  11
ATOM     11  O   UNL     1      -1.429  -2.475   0.000  0.00  0.00    +0.000 OA
BRANCH  11  17
ATOM     12  C   UNL     1       1.429  -2.475   0.000  0.00  0.00    +0.000 C 
ATOM     13  C   UNL     1       0.715  -2.888   0.000  0.00  0.00    +0.000 C 
ATOM     14  C   UNL     1       0.715  -3.712   0.000  0.00  0.00    +0.000 C 
ATOM     15  C   UNL     1       0.000  -4.125   0.000  0.00  0.00    +0.000 C 
ATOM     16  C   UNL     1      -0.715  -3.712   0.000  0.00  0.00    +0.000 C 
ATOM     17  C   UNL     1      -0.715  -2.888   0.000  0.00  0.00    +0.000 C 
ATOM     18  O   UNL     1       0.000  -2.475   0.000  0.00  0.00    +0.000 OA
ATOM     19  O   UNL     1      -1.429  -4.125   0.000  0.00  0.00    +0.000 OA
ATOM     20  O   UNL     1       0.000  -4.950   0.000  0.00  0.00    +0.000 OA
ATOM     21  O   UNL     1       1.429  -4.125   0.000  0.00  0.00    +0.000 OA
ENDBRANCH  11  17
ENDBRANCH   1  11
BRANCH   6  22
ATOM     22  O   UNL     1       0.000  -1.650   0.000  0.00  0.00    +0.000 OA
BRANCH  22  23
ATOM     23  C   UNL     1       0.715  -1.238   0.000  0.00  0.00    +0.000 A 
ATOM     24  C   UNL     1       0.715  -0.412   0.000  0.00  0.00    +0.000 A 
ATOM     25  C   UNL     1       1.429   0.000   0.000  0.00  0.00    +0.000 A 
ATOM     26  C   UNL     1       2.143  -0.412   0.000  0.00  0.00    +0.000 A 
ATOM     27  C   UNL     1       2.858   0.000   0.000  0.00  0.00    +0.000 C 
ATOM     28  O   UNL     1       2.858   0.825   0.000  0.00  0.00    +0.000 OA
ATOM     29  C   UNL     1       3.572  -0.412   0.000  0.00  0.00    +0.000 C 
ATOM     30  C   UNL     1       3.572  -1.238   0.000  0.00  0.00    +0.000 C 
ATOM     31  O   UNL     1       2.858  -1.650   0.000  0.00  0.00    +0.000 OA
ATOM     32  C   UNL     1       2.143  -1.238   0.000  0.00  0.00    +0.000 A 
ATOM     33  C   UNL     1       1.429  -1.650   0.000  0.00  0.00    +0.000 A 
ATOM     34  O   UNL     1       1.429   0.825   0.000  0.00  0.00    +0.000 OA
BRANCH  30  35
ATOM     35  C   UNL     1       4.287  -1.650   0.000  0.00  0.00    +0.000 A 
ATOM     36  C   UNL     1       5.001  -1.238   0.000  0.00  0.00    +0.000 A 
ATOM     37  C   UNL     1       5.716  -1.650   0.000  0.00  0.00    +0.000 A 
ATOM     38  C   UNL     1       5.716  -2.475   0.000  0.00  0.00    +0.000 A 
ATOM     39  C   UNL     1       5.001  -2.888   0.000  0.00  0.00    +0.000 A 
ATOM     40  C   UNL     1       4.287  -2.475   0.000  0.00  0.00    +0.000 A 
ATOM     41  O   UNL     1       6.430  -2.888   0.000  0.00  0.00    +0.000 OA
ENDBRANCH  30  35
ENDBRANCH  22  23
ENDBRANCH   6  22
TORSDOF 6
