REMARK  Name = null
REMARK  15 active torsions:
REMARK  status: ('A' for Active; 'I' for Inactive)
REMARK    1  A    between atoms: C_6  and  O_8
REMARK    2  A    between atoms: O_8  and  C_9
REMARK    3  A    between atoms: C_9  and  C_10
REMARK    4  A    between atoms: C_14  and  O_16
REMARK    5  A    between atoms: O_16  and  C_17
REMARK    6  A    between atoms: C_18  and  C_33
REMARK    7  A    between atoms: C_22  and  O_29
REMARK    8  A    between atoms: O_29  and  C_30
REMARK    9  A    between atoms: C_30  and  C_31
REMARK   10  A    between atoms: C_35  and  O_43
REMARK   11  A    between atoms: C_36  and  O_39
REMARK   12  A    between atoms: O_39  and  C_40
REMARK   13  A    between atoms: C_40  and  C_41
REMARK   14  A    between atoms: O_43  and  C_44
REMARK   15  A    between atoms: C_44  and  C_45
REMARK                            x       y       z     vdW  Elec       q    Type
REMARK                         _______ _______ _______ _____ _____    ______ ____
ROOT
ATOM      1  C   UNL     1       0.715  -1.238   0.000  0.00  0.00    +0.000 A 
ATOM      2  C   UNL     1       0.715  -0.412   0.000  0.00  0.00    +0.000 A 
ATOM      3  O   UNL     1       1.429   0.000   0.000  0.00  0.00    +0.000 OA
ATOM      4  C   UNL     1       2.143  -0.412   0.000  0.00  0.00    +0.000 A 
ATOM      5  C   UNL     1       2.858   0.000   0.000  0.00  0.00    +0.000 A 
ATOM      6  C   UNL     1       3.572  -0.412   0.000  0.00  0.00    +0.000 A 
ATOM      7  C   UNL     1       3.572  -1.238   0.000  0.00  0.00    +0.000 A 
ATOM      8  C   UNL     1       2.858  -1.650   0.000  0.00  0.00    +0.000 A 
ATOM      9  C   UNL     1       2.143  -1.238   0.000  0.00  0.00    +0.000 A 
ATOM     10  C   UNL     1       1.429  -1.650   0.000  0.00  0.00    +0.000 A 
ATOM     11  O   UNL     1       1.429  -2.475   0.000  0.00  0.00    +0.000 OA
ATOM     12  O   UNL     1       2.858  -2.475   0.000  0.00  0.00    +0.000 OA
ENDROOT
BRANCH   2  13
ATOM     13  C   UNL     1       0.000   0.000   0.000  0.00  0.00    +0.000 A 
ATOM     14  C   UNL     1      -0.715  -0.412   0.000  0.00  0.00    +0.000 A 
ATOM     15  C   UNL     1      -1.429   0.000   0.000  0.00  0.00    +0.000 A 
ATOM     16  C   UNL     1      -1.429   0.825   0.000  0.00  0.00    +0.000 A 
ATOM     17  C   UNL     1      -0.715   1.238   0.000  0.00  0.00    +0.000 A 
ATOM     18  C   UNL     1       0.000   0.825   0.000  0.00  0.00    +0.000 A 
BRANCH  16  19
ATOM     19  O   UNL     1      -2.143   1.238   0.000  0.00  0.00    +0.000 OA
BRANCH  19  20
ATOM     20  C   UNL     1      -2.858   0.825   0.000  0.00  0.00    +0.000 C 
BRANCH  20  21
ATOM     21  C   UNL     1      -3.572   1.238   0.000  0.00  0.00    +0.000 C 
ATOM     22  O   UNL     1      -3.572   2.062   0.000  0.00  0.00    +0.000 OA
ENDBRANCH  20  21
ENDBRANCH  19  20
ENDBRANCH  16  19
BRANCH  15  23
ATOM     23  O   UNL     1      -2.143  -0.412   0.000  0.00  0.00    +0.000 OA
BRANCH  23  24
ATOM     24  C   UNL     1      -2.858   0.000   0.000  0.00  0.00    +0.000 C 
BRANCH  24  25
ATOM     25  C   UNL     1      -3.572  -0.412   0.000  0.00  0.00    +0.000 C 
ATOM     26  O   UNL     1      -4.287   0.000   0.000  0.00  0.00    +0.000 OA
ENDBRANCH  24  25
ENDBRANCH  23  24
ENDBRANCH  15  23
ENDBRANCH   2  13
BRANCH   1  27
ATOM     27  O   UNL     1       0.000  -1.650   0.000  0.00  0.00    +0.000 OA
BRANCH  27  32
ATOM     28  C   UNL     1       0.715  -3.712   0.000  0.00  0.00    +0.000 C 
ATOM     29  C   UNL     1       0.000  -4.125   0.000  0.00  0.00    +0.000 C 
ATOM     30  C   UNL     1      -0.715  -3.712   0.000  0.00  0.00    +0.000 C 
ATOM     31  C   UNL     1      -0.715  -2.888   0.000  0.00  0.00    +0.000 C 
ATOM     32  C   UNL     1       0.000  -2.475   0.000  0.00  0.00    +0.000 C 
ATOM     33  O   UNL     1       0.715  -2.888   0.000  0.00  0.00    +0.000 OA
ATOM     34  O   UNL     1      -1.429  -2.475   0.000  0.00  0.00    +0.000 OA
ATOM     35  O   UNL     1      -1.429  -4.125   0.000  0.00  0.00    +0.000 OA
ATOM     36  O   UNL     1       0.000  -4.950   0.000  0.00  0.00    +0.000 OA
BRANCH  28  37
ATOM     37  C   UNL     1       1.429  -4.125   0.000  0.00  0.00    +0.000 C 
BRANCH  37  38
ATOM     38  O   UNL     1       1.429  -4.950   0.000  0.00  0.00    +0.000 OA
BRANCH  38  44
ATOM     39  C   UNL     1       4.287  -4.950   0.000  0.00  0.00    +0.000 C 
ATOM     40  C   UNL     1       3.572  -5.362   0.000  0.00  0.00    +0.000 C 
ATOM     41  C   UNL     1       3.572  -6.188   0.000  0.00  0.00    +0.000 C 
ATOM     42  C   UNL     1       2.858  -6.600   0.000  0.00  0.00    +0.000 C 
ATOM     43  C   UNL     1       2.143  -6.188   0.000  0.00  0.00    +0.000 C 
ATOM     44  C   UNL     1       2.143  -5.362   0.000  0.00  0.00    +0.000 C 
ATOM     45  O   UNL     1       2.858  -4.950   0.000  0.00  0.00    +0.000 OA
ATOM     46  O   UNL     1       1.429  -6.600   0.000  0.00  0.00    +0.000 OA
ATOM     47  O   UNL     1       2.858  -7.425   0.000  0.00  0.00    +0.000 OA
ATOM     48  O   UNL     1       4.287  -6.600   0.000  0.00  0.00    +0.000 OA
ENDBRANCH  38  44
ENDBRANCH  37  38
ENDBRANCH  28  37
ENDBRANCH  27  32
ENDBRANCH   1  27
BRANCH   6  49
ATOM     49  O   UNL     1       4.287   0.000   0.000  0.00  0.00    +0.000 OA
BRANCH  49  50
ATOM     50  C   UNL     1       5.001  -0.412   0.000  0.00  0.00    +0.000 C 
BRANCH  50  51
ATOM     51  C   UNL     1       5.716   0.000   0.000  0.00  0.00    +0.000 C 
ATOM     52  O   UNL     1       6.430  -0.412   0.000  0.00  0.00    +0.000 OA
ENDBRANCH  50  51
ENDBRANCH  49  50
ENDBRANCH   6  49
TORSDOF 15
