REMARK  Name = null
REMARK  10 active torsions:
REMARK  status: ('A' for Active; 'I' for Inactive)
REMARK    1  A    between atoms: C_6  and  O_8
REMARK    2  A    between atoms: O_8  and  C_9
REMARK    3  A    between atoms: C_12  and  C_37
REMARK    4  A    between atoms: C_14  and  O_15
REMARK    5  A    between atoms: O_15  and  C_16
REMARK    6  A    between atoms: C_19  and  C_23
REMARK    7  A    between atoms: C_23  and  C_25
REMARK    8  A    between atoms: C_25  and  C_26
REMARK    9  A    between atoms: C_26  and  C_27
REMARK   10  A    between atoms: C_30  and  O_33
REMARK                            x       y       z     vdW  Elec       q    Type
REMARK                         _______ _______ _______ _____ _____    ______ ____
ROOT
ATOM      1  O   UNL     1      10.003  -7.425   0.000  0.00  0.00    +0.000 OA
ENDROOT
BRANCH   1   7
ATOM      2  C   UNL     1       9.288  -6.188   0.000  0.00  0.00    +0.000 C 
ATOM      3  C   UNL     1       9.288  -5.362   0.000  0.00  0.00    +0.000 C 
ATOM      4  C   UNL     1      10.003  -4.950   0.000  0.00  0.00    +0.000 C 
ATOM      5  C   UNL     1      10.717  -5.362   0.000  0.00  0.00    +0.000 C 
ATOM      6  O   UNL     1      10.717  -6.188   0.000  0.00  0.00    +0.000 OA
ATOM      7  C   UNL     1      10.003  -6.600   0.000  0.00  0.00    +0.000 C 
ATOM      8  O   UNL     1      10.003  -4.125   0.000  0.00  0.00    +0.000 OA
ATOM      9  O   UNL     1       8.574  -4.950   0.000  0.00  0.00    +0.000 OA
BRANCH   5  10
ATOM     10  C   UNL     1      11.431  -4.950   0.000  0.00  0.00    +0.000 C 
ATOM     11  O   UNL     1      12.146  -5.362   0.000  0.00  0.00    +0.000 OA
ENDBRANCH   5  10
BRANCH   2  12
ATOM     12  O   UNL     1       8.574  -6.600   0.000  0.00  0.00    +0.000 OA
BRANCH  12  18
ATOM     13  C   UNL     1       7.145  -4.125   0.000  0.00  0.00    +0.000 C 
ATOM     14  C   UNL     1       7.145  -4.950   0.000  0.00  0.00    +0.000 C 
ATOM     15  C   UNL     1       6.430  -5.362   0.000  0.00  0.00    +0.000 C 
ATOM     16  C   UNL     1       6.430  -6.188   0.000  0.00  0.00    +0.000 C 
ATOM     17  C   UNL     1       7.145  -6.600   0.000  0.00  0.00    +0.000 C 
ATOM     18  C   UNL     1       7.859  -6.188   0.000  0.00  0.00    +0.000 C 
ATOM     19  O   UNL     1       7.859  -5.362   0.000  0.00  0.00    +0.000 OA
ATOM     20  O   UNL     1       7.145  -7.425   0.000  0.00  0.00    +0.000 OA
ATOM     21  O   UNL     1       5.716  -6.600   0.000  0.00  0.00    +0.000 OA
ATOM     22  O   UNL     1       5.716  -4.950   0.000  0.00  0.00    +0.000 OA
ENDBRANCH  12  18
ENDBRANCH   2  12
ENDBRANCH   1   7
BRANCH   1  23
ATOM     23  C   UNL     1      10.717  -7.838   0.000  0.00  0.00    +0.000 A 
ATOM     24  C   UNL     1      11.431  -7.425   0.000  0.00  0.00    +0.000 A 
ATOM     25  C   UNL     1      12.146  -7.838   0.000  0.00  0.00    +0.000 A 
ATOM     26  C   UNL     1      12.146  -8.662   0.000  0.00  0.00    +0.000 A 
ATOM     27  C   UNL     1      11.431  -9.075   0.000  0.00  0.00    +0.000 A 
ATOM     28  C   UNL     1      10.717  -8.662   0.000  0.00  0.00    +0.000 A 
ATOM     29  O   UNL     1      11.431  -9.900   0.000  0.00  0.00    +0.000 OA
ATOM     30  O   UNL     1      12.861  -7.425   0.000  0.00  0.00    +0.000 OA
BRANCH  26  31
ATOM     31  C   UNL     1      12.861  -9.075   0.000  0.00  0.00    +0.000 C 
ATOM     32  O   UNL     1      13.575  -8.662   0.000  0.00  0.00    +0.000 OA
BRANCH  31  33
ATOM     33  C   UNL     1      12.861  -9.900   0.000  0.00  0.00    +0.000 C 
BRANCH  33  34
ATOM     34  C   UNL     1      13.575 -10.312   0.000  0.00  0.00    +0.000 C 
BRANCH  34  35
ATOM     35  C   UNL     1      13.575 -11.137   0.000  0.00  0.00    +0.000 A 
ATOM     36  C   UNL     1      14.289 -11.550   0.000  0.00  0.00    +0.000 A 
ATOM     37  C   UNL     1      14.289 -12.375   0.000  0.00  0.00    +0.000 A 
ATOM     38  C   UNL     1      13.575 -12.787   0.000  0.00  0.00    +0.000 A 
ATOM     39  C   UNL     1      12.861 -12.375   0.000  0.00  0.00    +0.000 A 
ATOM     40  C   UNL     1      12.861 -11.550   0.000  0.00  0.00    +0.000 A 
ATOM     41  O   UNL     1      15.004 -12.787   0.000  0.00  0.00    +0.000 OA
BRANCH  38  42
ATOM     42  O   UNL     1      13.575 -13.613   0.000  0.00  0.00    +0.000 OA
ATOM     43  C   UNL     1      12.861 -14.025   0.000  0.00  0.00    +0.000 C 
ENDBRANCH  38  42
ENDBRANCH  34  35
ENDBRANCH  33  34
ENDBRANCH  31  33
ENDBRANCH  26  31
ENDBRANCH   1  23
TORSDOF 10
