REMARK  Name = null
REMARK  3 active torsions:
REMARK  status: ('A' for Active; 'I' for Inactive)
REMARK    1  A    between atoms: C_6  and  O_8
REMARK    2  A    between atoms: O_8  and  C_9
REMARK    3  A    between atoms: C_10  and  C_22
REMARK                            x       y       z     vdW  Elec       q    Type
REMARK                         _______ _______ _______ _____ _____    ______ ____
ROOT
ATOM      1  C   UNL     1       0.715  -1.238   0.000  0.00  0.00    +0.000 A 
ATOM      2  C   UNL     1       0.715  -0.412   0.000  0.00  0.00    +0.000 A 
ATOM      3  O   UNL     1       1.429   0.000   0.000  0.00  0.00    +0.000 OA
ATOM      4  C   UNL     1       2.143  -0.412   0.000  0.00  0.00    +0.000 A 
ATOM      5  C   UNL     1       2.858   0.000   0.000  0.00  0.00    +0.000 A 
ATOM      6  C   UNL     1       3.572  -0.412   0.000  0.00  0.00    +0.000 A 
ATOM      7  C   UNL     1       3.572  -1.238   0.000  0.00  0.00    +0.000 A 
ATOM      8  C   UNL     1       2.858  -1.650   0.000  0.00  0.00    +0.000 A 
ATOM      9  C   UNL     1       2.143  -1.238   0.000  0.00  0.00    +0.000 A 
ATOM     10  C   UNL     1       1.429  -1.650   0.000  0.00  0.00    +0.000 A 
ATOM     11  O   UNL     1       1.429  -2.475   0.000  0.00  0.00    +0.000 OA
ATOM     12  O   UNL     1       2.858  -2.475   0.000  0.00  0.00    +0.000 OA
ATOM     13  O   UNL     1       4.287   0.000   0.000  0.00  0.00    +0.000 OA
ENDROOT
BRANCH   2  14
ATOM     14  C   UNL     1       0.000   0.000   0.000  0.00  0.00    +0.000 A 
ATOM     15  C   UNL     1      -0.715  -0.412   0.000  0.00  0.00    +0.000 A 
ATOM     16  C   UNL     1      -1.429   0.000   0.000  0.00  0.00    +0.000 A 
ATOM     17  C   UNL     1      -1.429   0.825   0.000  0.00  0.00    +0.000 A 
ATOM     18  C   UNL     1      -0.715   1.238   0.000  0.00  0.00    +0.000 A 
ATOM     19  C   UNL     1       0.000   0.825   0.000  0.00  0.00    +0.000 A 
ATOM     20  O   UNL     1      -2.143   1.238   0.000  0.00  0.00    +0.000 OA
ATOM     21  O   UNL     1      -2.143  -0.412   0.000  0.00  0.00    +0.000 OA
ENDBRANCH   2  14
BRANCH   1  22
ATOM     22  O   UNL     1       0.000  -1.650   0.000  0.00  0.00    +0.000 OA
BRANCH  22  28
ATOM     23  C   UNL     1       1.429  -4.125   0.000  0.00  0.00    +0.000 C 
ATOM     24  C   UNL     1       0.715  -3.712   0.000  0.00  0.00    +0.000 C 
ATOM     25  C   UNL     1       0.000  -4.125   0.000  0.00  0.00    +0.000 C 
ATOM     26  C   UNL     1      -0.715  -3.712   0.000  0.00  0.00    +0.000 C 
ATOM     27  C   UNL     1      -0.715  -2.888   0.000  0.00  0.00    +0.000 C 
ATOM     28  C   UNL     1       0.000  -2.475   0.000  0.00  0.00    +0.000 C 
ATOM     29  O   UNL     1       0.715  -2.888   0.000  0.00  0.00    +0.000 OA
ATOM     30  O   UNL     1      -1.429  -2.475   0.000  0.00  0.00    +0.000 OA
ATOM     31  O   UNL     1      -1.429  -4.125   0.000  0.00  0.00    +0.000 OA
ATOM     32  O   UNL     1       0.000  -4.950   0.000  0.00  0.00    +0.000 OA
ENDBRANCH  22  28
ENDBRANCH   1  22
TORSDOF 3
