REMARK  Name = null
REMARK  6 active torsions:
REMARK  status: ('A' for Active; 'I' for Inactive)
REMARK    1  A    between atoms: C_9  and  C_21
REMARK    2  A    between atoms: N_12  and  CA_13
REMARK    3  A    between atoms: CA_13  and  CB_14
REMARK    4  A    between atoms: CA_13  and  C_18
REMARK    5  A    between atoms: CB_14  and  CG_15
REMARK    6  A    between atoms: C_24  and  O_27
REMARK                            x       y       z     vdW  Elec       q    Type
REMARK                         _______ _______ _______ _____ _____    ______ ____
ROOT
ATOM      1  C   UNL     1       3.572   3.712   0.000  0.00  0.00    +0.000 C 
ATOM      2  C   UNL     1       4.287   3.300   0.000  0.00  0.00    +0.000 A 
ATOM      3  C   UNL     1       4.287   2.475   0.000  0.00  0.00    +0.000 A 
ATOM      4  C   UNL     1       5.001   2.062   0.000  0.00  0.00    +0.000 A 
ATOM      5  C   UNL     1       5.716   2.475   0.000  0.00  0.00    +0.000 A 
ATOM      6  C   UNL     1       5.716   3.300   0.000  0.00  0.00    +0.000 A 
ATOM      7  C   UNL     1       5.001   3.712   0.000  0.00  0.00    +0.000 A 
ATOM      8  O   UNL     1       6.430   2.062   0.000  0.00  0.00    +0.000 OA
ATOM      9  C   UNL     1       6.430   1.238   0.000  0.00  0.00    +0.000 A 
ATOM     10  C   UNL     1       5.716   0.825   0.000  0.00  0.00    +0.000 A 
ATOM     11  C   ACE A   0       5.001   1.238   0.000  0.00  0.00    +0.000 A 
ATOM     12  N   UNL     1       4.287   0.825   0.000  0.00  0.00    +0.000 NA
ENDROOT
BRANCH   9  13
ATOM     13  C   UNL     1       7.145   0.825   0.000  0.00  0.00    +0.000 A 
ATOM     14  C   UNL     1       7.859   1.238   0.000  0.00  0.00    +0.000 A 
ATOM     15  C   UNL     1       8.574   0.825   0.000  0.00  0.00    +0.000 A 
ATOM     16  C   UNL     1       8.574   0.000   0.000  0.00  0.00    +0.000 A 
ATOM     17  C   UNL     1       7.859  -0.412   0.000  0.00  0.00    +0.000 A 
ATOM     18  C   UNL     1       7.145   0.000   0.000  0.00  0.00    +0.000 A 
BRANCH  16  19
ATOM     19  O   UNL     1       9.288  -0.412   0.000  0.00  0.00    +0.000 OA
ATOM     20  C   UNL     1      10.003   0.000   0.000  0.00  0.00    +0.000 C 
ENDBRANCH  16  19
ENDBRANCH   9  13
BRANCH  12  21
ATOM     21  CA  UNL     1       4.287   0.000   0.000  0.00  0.00    +0.000 C 
BRANCH  21  22
ATOM     22  C   UNL     1       5.001  -0.412   0.000  0.00  0.00    +0.000 C 
ATOM     23  O   UNL     1       5.716   0.000   0.000  0.00  0.00    +0.000 OA
ATOM     24  OXT UNL     1       5.001  -1.238   0.000  0.00  0.00    +0.000 OA
ENDBRANCH  21  22
BRANCH  21  25
ATOM     25  CB  UNL     1       3.572  -0.412   0.000  0.00  0.00    +0.000 C 
BRANCH  25  26
ATOM     26  CG  UNL     1       3.572  -1.238   0.000  0.00  0.00    +0.000 C 
ATOM     27  CD1 UNL     1       2.858  -1.650   0.000  0.00  0.00    +0.000 C 
ATOM     28  CD2 UNL     1       4.287  -1.650   0.000  0.00  0.00    +0.000 C 
ENDBRANCH  25  26
ENDBRANCH  21  25
ENDBRANCH  12  21
TORSDOF 6
