REMARK  Name = null
REMARK  6 active torsions:
REMARK  status: ('A' for Active; 'I' for Inactive)
REMARK    1  A    between atoms: O_2  and  C_3
REMARK    2  A    between atoms: C_4  and  O_25
REMARK    3  A    between atoms: C_8  and  C_11
REMARK    4  A    between atoms: C_12  and  O_21
REMARK    5  A    between atoms: C_13  and  O_19
REMARK    6  A    between atoms: C_14  and  O_17
REMARK                            x       y       z     vdW  Elec       q    Type
REMARK                         _______ _______ _______ _____ _____    ______ ____
ROOT
ATOM      1  C   UNL     1      -0.715  -1.238   0.000  0.00  0.00    +0.000 A 
ATOM      2  C   UNL     1       0.000  -1.650   0.000  0.00  0.00    +0.000 A 
ATOM      3  C   UNL     1       0.715  -1.238   0.000  0.00  0.00    +0.000 A 
ATOM      4  C   UNL     1       0.715  -0.412   0.000  0.00  0.00    +0.000 A 
ATOM      5  C   UNL     1       1.429   0.000   0.000  0.00  0.00    +0.000 C 
ATOM      6  C   UNL     1       2.143  -0.412   0.000  0.00  0.00    +0.000 C 
ATOM      7  C   UNL     1       2.143  -1.238   0.000  0.00  0.00    +0.000 C 
ATOM      8  O   UNL     1       1.429  -1.650   0.000  0.00  0.00    +0.000 OA
ATOM      9  C   UNL     1       0.000   0.000   0.000  0.00  0.00    +0.000 A 
ATOM     10  C   UNL     1      -0.715  -0.412   0.000  0.00  0.00    +0.000 A 
ENDROOT
BRANCH   6  11
ATOM     11  C   UNL     1       2.858   0.000   0.000  0.00  0.00    +0.000 A 
ATOM     12  C   UNL     1       2.858   0.825   0.000  0.00  0.00    +0.000 A 
ATOM     13  C   UNL     1       3.572   1.238   0.000  0.00  0.00    +0.000 A 
ATOM     14  C   UNL     1       4.287   0.825   0.000  0.00  0.00    +0.000 A 
ATOM     15  C   UNL     1       4.287   0.000   0.000  0.00  0.00    +0.000 A 
ATOM     16  C   UNL     1       3.572  -0.412   0.000  0.00  0.00    +0.000 A 
BRANCH  14  17
ATOM     17  O   UNL     1       5.001   1.238   0.000  0.00  0.00    +0.000 OA
ATOM     18  C   UNL     1       5.001   2.062   0.000  0.00  0.00    +0.000 C 
ENDBRANCH  14  17
BRANCH  13  19
ATOM     19  O   UNL     1       3.572   2.062   0.000  0.00  0.00    +0.000 OA
ATOM     20  C   UNL     1       4.287   2.475   0.000  0.00  0.00    +0.000 C 
ENDBRANCH  13  19
BRANCH  12  21
ATOM     21  O   UNL     1       2.143   1.238   0.000  0.00  0.00    +0.000 OA
ATOM     22  C   UNL     1       2.143   2.062   0.000  0.00  0.00    +0.000 C 
ENDBRANCH  12  21
ENDBRANCH   6  11
BRANCH   1  24
ATOM     23  C   UNL     1      -2.143  -1.238   0.000  0.00  0.00    +0.000 C 
ATOM     24  O   UNL     1      -1.429  -1.650   0.000  0.00  0.00    +0.000 OA
ENDBRANCH   1  24
BRANCH   2  25
ATOM     25  O   UNL     1       0.000  -2.475   0.000  0.00  0.00    +0.000 OA
ATOM     26  C   UNL     1       0.715  -2.888   0.000  0.00  0.00    +0.000 C 
ENDBRANCH   2  25
TORSDOF 6
