REMARK  Name = null
REMARK  7 active torsions:
REMARK  status: ('A' for Active; 'I' for Inactive)
REMARK    1  A    between atoms: C_2  and  C_3
REMARK    2  A    between atoms: C_8  and  N_9
REMARK    3  A    between atoms: C_10  and  C_12
REMARK    4  A    between atoms: C_12  and  O_13
REMARK    5  A    between atoms: O_13  and  C_14
REMARK    6  A    between atoms: C_21  and  C_25
REMARK    7  A    between atoms: C_28  and  O_31
REMARK                            x       y       z     vdW  Elec       q    Type
REMARK                         _______ _______ _______ _____ _____    ______ ____
ROOT
ATOM      1  C   UNL     1      -0.715  -1.238   0.000  0.00  0.00    +0.000 A 
ATOM      2  C   UNL     1       0.000  -1.650   0.000  0.00  0.00    +0.000 A 
ATOM      3  C   UNL     1       0.715  -1.238   0.000  0.00  0.00    +0.000 A 
ATOM      4  C   UNL     1       0.715  -0.412   0.000  0.00  0.00    +0.000 A 
ATOM      5  C   UNL     1       0.000   0.000   0.000  0.00  0.00    +0.000 A 
ATOM      6  C   UNL     1      -0.715  -0.412   0.000  0.00  0.00    +0.000 A 
ATOM      7  O   UNL     1       1.429   0.000   0.000  0.00  0.00    +0.000 OA
ATOM      8  C   UNL     1       2.143  -0.412   0.000  0.00  0.00    +0.000 A 
ATOM      9  C   UNL     1       2.143  -1.238   0.000  0.00  0.00    +0.000 A 
ATOM     10  C   UNL     1       1.429  -1.650   0.000  0.00  0.00    +0.000 A 
ATOM     11  O   UNL     1       1.429  -2.475   0.000  0.00  0.00    +0.000 OA
ENDROOT
BRANCH   8  12
ATOM     12  C   UNL     1       2.858   0.000   0.000  0.00  0.00    +0.000 A 
ATOM     13  C   UNL     1       2.858   0.825   0.000  0.00  0.00    +0.000 A 
ATOM     14  C   UNL     1       3.572   1.238   0.000  0.00  0.00    +0.000 A 
ATOM     15  C   UNL     1       4.287   0.825   0.000  0.00  0.00    +0.000 A 
ATOM     16  C   UNL     1       4.287   0.000   0.000  0.00  0.00    +0.000 A 
ATOM     17  C   UNL     1       3.572  -0.412   0.000  0.00  0.00    +0.000 A 
BRANCH  15  18
ATOM     18  O   UNL     1       5.001   1.238   0.000  0.00  0.00    +0.000 OA
ATOM     19  C   UNL     1       5.001   2.062   0.000  0.00  0.00    +0.000 C 
ENDBRANCH  15  18
ENDBRANCH   8  12
BRANCH   1  20
ATOM     20  O   UNL     1      -1.429  -1.650   0.000  0.00  0.00    +0.000 OA
BRANCH  20  21
ATOM     21  C   UNL     1      -2.143  -1.238   0.000  0.00  0.00    +0.000 C 
BRANCH  21  23
ATOM     22  N   UNL     1      -3.572  -1.238   0.000  0.00  0.00    +0.000 NA
ATOM     23  C   UNL     1      -2.858  -1.650   0.000  0.00  0.00    +0.000 C 
ATOM     24  O   UNL     1      -2.858  -2.475   0.000  0.00  0.00    +0.000 OA
BRANCH  22  30
ATOM     25  C   UNL     1      -4.287  -2.475   0.000  0.00  0.00    +0.000 A 
ATOM     26  C   UNL     1      -5.001  -2.888   0.000  0.00  0.00    +0.000 A 
ATOM     27  C   UNL     1      -5.716  -2.475   0.000  0.00  0.00    +0.000 A 
ATOM     28  C   UNL     1      -5.716  -1.650   0.000  0.00  0.00    +0.000 A 
ATOM     29  C   UNL     1      -5.001  -1.238   0.000  0.00  0.00    +0.000 A 
ATOM     30  C   UNL     1      -4.287  -1.650   0.000  0.00  0.00    +0.000 A 
BRANCH  25  32
ATOM     31  C   UNL     1      -3.572  -3.712   0.000  0.00  0.00    +0.000 C 
ATOM     32  C   UNL     1      -3.572  -2.888   0.000  0.00  0.00    +0.000 C 
ENDBRANCH  25  32
ENDBRANCH  22  30
ENDBRANCH  21  23
ENDBRANCH  20  21
ENDBRANCH   1  20
TORSDOF 7
