REMARK  Name = 
REMARK  4 active torsions:
REMARK  status: ('A' for Active; 'I' for Inactive)
REMARK    1  A    between atoms: C_10  and  C_13
REMARK    2  A    between atoms: C_11  and  O_22
REMARK    3  A    between atoms: O_22  and  C_23
REMARK    4  A    between atoms: C_27  and  C_31
REMARK                            x       y       z     vdW  Elec       q    Type
REMARK                         _______ _______ _______ _____ _____    ______ ____
ROOT
ATOM      1  C   UNL     1      12.754  -8.641   0.000  0.00  0.00    +0.000 A 
ATOM      2  C   UNL     1      11.888  -9.141   0.000  0.00  0.00    +0.000 A 
ATOM      3  C   UNL     1      11.888 -10.141   0.000  0.00  0.00    +0.000 A 
ATOM      4  C   UNL     1      12.754 -10.641   0.000  0.00  0.00    +0.000 A 
ATOM      5  C   UNL     1      13.620 -10.141   0.000  0.00  0.00    +0.000 A 
ATOM      6  C   UNL     1      13.620  -9.141   0.000  0.00  0.00    +0.000 A 
ATOM      7  O   UNL     1      14.486  -8.641   0.000  0.00  0.00    +0.000 OA
ENDROOT
BRANCH   3  17
ATOM      8  C   UNL     1       8.424 -10.141   0.000  0.00  0.00    +0.000 A 
ATOM      9  C   UNL     1       7.558 -10.641   0.000  0.00  0.00    +0.000 A 
ATOM     10  C   UNL     1       7.558 -11.641   0.000  0.00  0.00    +0.000 A 
ATOM     11  C   UNL     1       8.424 -12.141   0.000  0.00  0.00    +0.000 A 
ATOM     12  C   UNL     1       9.290 -11.641   0.000  0.00  0.00    +0.000 A 
ATOM     13  C   UNL     1       9.290 -10.641   0.000  0.00  0.00    +0.000 A 
ATOM     14  O   UNL     1      10.156 -10.141   0.000  0.00  0.00    +0.000 OA
ATOM     15  C   UNL     1      10.156 -12.141   0.000  0.00  0.00    +0.000 C 
ATOM     16  C   UNL     1      11.022 -11.641   0.000  0.00  0.00    +0.000 C 
ATOM     17  C   UNL     1      11.022 -10.641   0.000  0.00  0.00    +0.000 C 
ATOM     18  O   UNL     1      10.156 -13.141   0.000  0.00  0.00    +0.000 OA
ATOM     19  O   UNL     1       8.424 -13.141   0.000  0.00  0.00    +0.000 OA
ATOM     20  O   UNL     1       6.692 -10.141   0.000  0.00  0.00    +0.000 OA
ATOM     21  O   UNL     1      11.888 -12.141   0.000  0.00  0.00    +0.000 OA
ENDBRANCH   3  17
BRANCH   1  22
ATOM     22  O   UNL     1      12.754  -7.641   0.000  0.00  0.00    +0.000 OA
BRANCH  22  23
ATOM     23  C   UNL     1      11.888  -7.141   0.000  0.00  0.00    +0.000 C 
ATOM     24  C   UNL     1      11.888  -6.141   0.000  0.00  0.00    +0.000 C 
ATOM     25  C   UNL     1      11.022  -5.641   0.000  0.00  0.00    +0.000 C 
ATOM     26  O   UNL     1      11.022  -7.641   0.000  0.00  0.00    +0.000 OA
ATOM     27  C   UNL     1      10.156  -7.141   0.000  0.00  0.00    +0.000 C 
ATOM     28  C   UNL     1      10.156  -6.141   0.000  0.00  0.00    +0.000 C 
ATOM     29  O   UNL     1      11.022  -4.641   0.000  0.00  0.00    +0.000 OA
ATOM     30  O   UNL     1       9.290  -5.641   0.000  0.00  0.00    +0.000 OA
ATOM     31  O   UNL     1      12.754  -5.641   0.000  0.00  0.00    +0.000 OA
BRANCH  27  32
ATOM     32  C   UNL     1       9.290  -7.641   0.000  0.00  0.00    +0.000 C 
ATOM     33  O   UNL     1       8.424  -7.141   0.000  0.00  0.00    +0.000 OA
ATOM     34  O   UNL     1       9.290  -8.641   0.000  0.00  0.00    +0.000 OA
ENDBRANCH  27  32
ENDBRANCH  22  23
ENDBRANCH   1  22
TORSDOF 4
