REMARK  Name = 
REMARK  4 active torsions:
REMARK  status: ('A' for Active; 'I' for Inactive)
REMARK    1  A    between atoms: C_1  and  C_26
REMARK    2  A    between atoms: C_10  and  C_11
REMARK    3  A    between atoms: C_15  and  O_30
REMARK    4  A    between atoms: C_22  and  C_32
REMARK                            x       y       z     vdW  Elec       q    Type
REMARK                         _______ _______ _______ _____ _____    ______ ____
ROOT
ATOM      1  C   UNL     1      13.146  -9.939   0.000  0.00  0.00    +0.000 A 
ATOM      2  C   UNL     1      12.280 -10.439   0.000  0.00  0.00    +0.000 A 
ATOM      3  C   UNL     1      12.280 -11.439   0.000  0.00  0.00    +0.000 A 
ATOM      4  C   UNL     1      13.146 -11.939   0.000  0.00  0.00    +0.000 A 
ATOM      5  C   UNL     1      14.012 -11.439   0.000  0.00  0.00    +0.000 A 
ATOM      6  C   UNL     1      14.012 -10.439   0.000  0.00  0.00    +0.000 A 
ATOM      7  O   UNL     1      14.878  -9.939   0.000  0.00  0.00    +0.000 OA
ATOM      8  C   UNL     1      14.878 -11.939   0.000  0.00  0.00    +0.000 A 
ATOM      9  C   UNL     1      15.744 -11.439   0.000  0.00  0.00    +0.000 A 
ATOM     10  C   UNL     1      15.744 -10.439   0.000  0.00  0.00    +0.000 A 
ATOM     11  O   UNL     1      13.146 -12.939   0.000  0.00  0.00    +0.000 OA
ATOM     12  O   UNL     1      14.878 -12.939   0.000  0.00  0.00    +0.000 OA
ATOM     13  O   UNL     1      11.414  -9.939   0.000  0.00  0.00    +0.000 OA
ENDROOT
BRANCH   1  19
ATOM     14  O   UNL     1      14.012  -8.439   0.000  0.00  0.00    +0.000 OA
ATOM     15  C   UNL     1      14.012  -7.439   0.000  0.00  0.00    +0.000 C 
ATOM     16  C   UNL     1      13.146  -6.939   0.000  0.00  0.00    +0.000 C 
ATOM     17  C   UNL     1      12.280  -7.439   0.000  0.00  0.00    +0.000 C 
ATOM     18  C   UNL     1      12.280  -8.439   0.000  0.00  0.00    +0.000 C 
ATOM     19  C   UNL     1      13.146  -8.939   0.000  0.00  0.00    +0.000 C 
ATOM     20  O   UNL     1      11.414  -8.939   0.000  0.00  0.00    +0.000 OA
ATOM     21  O   UNL     1      13.146  -5.939   0.000  0.00  0.00    +0.000 OA
ATOM     22  O   UNL     1      11.414  -6.939   0.000  0.00  0.00    +0.000 OA
BRANCH  15  23
ATOM     23  C   UNL     1      14.878  -6.939   0.000  0.00  0.00    +0.000 C 
ATOM     24  O   UNL     1      15.744  -7.439   0.000  0.00  0.00    +0.000 OA
ENDBRANCH  15  23
ENDBRANCH   1  19
BRANCH  10  25
ATOM     25  C   UNL     1      16.610  -9.939   0.000  0.00  0.00    +0.000 A 
ATOM     26  C   UNL     1      17.476  -8.439   0.000  0.00  0.00    +0.000 A 
ATOM     27  C   UNL     1      16.610  -8.939   0.000  0.00  0.00    +0.000 A 
ATOM     28  C   UNL     1      17.476 -10.439   0.000  0.00  0.00    +0.000 A 
ATOM     29  C   UNL     1      18.342  -9.939   0.000  0.00  0.00    +0.000 A 
ATOM     30  C   UNL     1      18.342  -8.939   0.000  0.00  0.00    +0.000 A 
ATOM     31  O   UNL     1      19.208  -8.439   0.000  0.00  0.00    +0.000 OA
BRANCH  29  32
ATOM     32  O   UNL     1      19.208 -10.439   0.000  0.00  0.00    +0.000 OA
ATOM     33  C   UNL     1      20.074  -9.939   0.000  0.00  0.00    +0.000 C 
ENDBRANCH  29  32
ENDBRANCH  10  25
TORSDOF 4
