REMARK  Name = monoxerutin
REMARK  9 active torsions:
REMARK  status: ('A' for Active; 'I' for Inactive)
REMARK    1  A    between atoms: O_1  and  C_2
REMARK    2  A    between atoms: O_1  and  C_3
REMARK    3  A    between atoms: C_4  and  C_9
REMARK    4  A    between atoms: C_12  and  C_19
REMARK    5  A    between atoms: C_19  and  O_27
REMARK    6  A    between atoms: O_27  and  C_32
REMARK    7  A    between atoms: C_29  and  O_33
REMARK    8  A    between atoms: O_33  and  C_37
REMARK    9  A    between atoms: C_37  and  C_41
REMARK                            x       y       z     vdW  Elec       q    Type
REMARK                         _______ _______ _______ _____ _____    ______ ____
ROOT
ATOM      1  C   UNL     1      -0.004  -4.043   0.000  0.00  0.00    +0.000 A 
ATOM      2  C   UNL     1      -0.004  -3.212   0.000  0.00  0.00    +0.000 A 
ATOM      3  C   UNL     1      -0.717  -4.459   0.000  0.00  0.00    +0.000 A 
ATOM      4  O   UNL     1      -0.717  -2.796   0.000  0.00  0.00    +0.000 OA
ATOM      5  O   UNL     1      -0.717  -5.284   0.000  0.00  0.00    +0.000 OA
ATOM      6  C   UNL     1      -1.429  -4.043   0.000  0.00  0.00    +0.000 A 
ATOM      7  C   UNL     1      -1.429  -3.212   0.000  0.00  0.00    +0.000 A 
ATOM      8  C   UNL     1      -2.141  -4.459   0.000  0.00  0.00    +0.000 A 
ATOM      9  C   UNL     1      -2.141  -2.796   0.000  0.00  0.00    +0.000 A 
ATOM     10  O   UNL     1      -2.141  -5.284   0.000  0.00  0.00    +0.000 OA
ATOM     11  C   UNL     1      -2.854  -4.043   0.000  0.00  0.00    +0.000 A 
ATOM     12  C   UNL     1      -2.854  -3.212   0.000  0.00  0.00    +0.000 A 
ENDROOT
BRANCH   2  13
ATOM     13  C   UNL     1       0.712  -2.799   0.000  0.00  0.00    +0.000 A 
ATOM     14  C   UNL     1       0.712  -1.974   0.000  0.00  0.00    +0.000 A 
ATOM     15  C   UNL     1       1.427  -3.212   0.000  0.00  0.00    +0.000 A 
ATOM     16  C   UNL     1       1.427  -1.562   0.000  0.00  0.00    +0.000 A 
ATOM     17  C   UNL     1       2.141  -2.799   0.000  0.00  0.00    +0.000 A 
ATOM     18  O   UNL     1       1.427  -0.737   0.000  0.00  0.00    +0.000 OA
ATOM     19  C   UNL     1       2.141  -1.974   0.000  0.00  0.00    +0.000 A 
ATOM     20  O   UNL     1       2.856  -1.562   0.000  0.00  0.00    +0.000 OA
ENDBRANCH   2  13
BRANCH   1  21
ATOM     21  O   UNL     1       0.712  -4.455   0.000  0.00  0.00    +0.000 OA
BRANCH  21  22
ATOM     22  C   UNL     1       0.712  -5.841   0.000  0.00  0.00    +0.000 C 
ATOM     23  O   UNL     1       1.425  -6.254   0.000  0.00  0.00    +0.000 OA
ATOM     24  C   UNL     1      -0.002  -6.252   0.000  0.00  0.00    +0.000 C 
ATOM     25  C   UNL     1       1.427  -7.077   0.000  0.00  0.00    +0.000 C 
ATOM     26  O   UNL     1      -0.717  -5.841   0.000  0.00  0.00    +0.000 OA
ATOM     27  C   UNL     1      -0.004  -7.079   0.000  0.00  0.00    +0.000 C 
ATOM     28  C   UNL     1       0.710  -7.491   0.000  0.00  0.00    +0.000 C 
ATOM     29  O   UNL     1      -0.717  -7.491   0.000  0.00  0.00    +0.000 OA
ATOM     30  O   UNL     1       0.710  -8.316   0.000  0.00  0.00    +0.000 OA
BRANCH  25  31
ATOM     31  C   UNL     1       2.139  -7.491   0.000  0.00  0.00    +0.000 C 
BRANCH  31  32
ATOM     32  O   UNL     1       2.854  -7.077   0.000  0.00  0.00    +0.000 OA
BRANCH  32  33
ATOM     33  C   UNL     1       3.568  -7.491   0.000  0.00  0.00    +0.000 C 
ATOM     34  C   UNL     1       3.566  -8.316   0.000  0.00  0.00    +0.000 C 
ATOM     35  O   UNL     1       4.281  -7.077   0.000  0.00  0.00    +0.000 OA
ATOM     36  O   UNL     1       2.852  -8.727   0.000  0.00  0.00    +0.000 OA
ATOM     37  C   UNL     1       4.281  -8.727   0.000  0.00  0.00    +0.000 C 
ATOM     38  C   UNL     1       4.995  -7.491   0.000  0.00  0.00    +0.000 C 
ATOM     39  O   UNL     1       4.281  -9.552   0.000  0.00  0.00    +0.000 OA
ATOM     40  C   UNL     1       4.997  -8.316   0.000  0.00  0.00    +0.000 C 
ATOM     41  C   UNL     1       5.710  -7.077   0.000  0.00  0.00    +0.000 C 
ATOM     42  O   UNL     1       5.710  -8.727   0.000  0.00  0.00    +0.000 OA
ENDBRANCH  32  33
ENDBRANCH  31  32
ENDBRANCH  25  31
ENDBRANCH  21  22
ENDBRANCH   1  21
BRANCH  12  43
ATOM     43  O   UNL     1      -3.568  -2.799   0.000  0.00  0.00    +0.000 OA
BRANCH  43  44
ATOM     44  C   UNL     1      -4.283  -3.212   0.000  0.00  0.00    +0.000 C 
BRANCH  44  45
ATOM     45  C   UNL     1      -4.997  -2.799   0.000  0.00  0.00    +0.000 C 
ATOM     46  O   UNL     1      -5.712  -3.212   0.000  0.00  0.00    +0.000 OA
ENDBRANCH  44  45
ENDBRANCH  43  44
ENDBRANCH  12  43
TORSDOF 9
