REMARK  Name = dimefline
REMARK  4 active torsions:
REMARK  status: ('A' for Active; 'I' for Inactive)
REMARK    1  A    between atoms: C_1  and  N_2
REMARK    2  A    between atoms: C_1  and  C_3
REMARK    3  A    between atoms: C_7  and  O_10
REMARK    4  A    between atoms: C_14  and  C_18
REMARK                            x       y       z     vdW  Elec       q    Type
REMARK                         _______ _______ _______ _____ _____    ______ ____
ROOT
ATOM      1  C   UNL     1      -1.069  -2.799   0.000  0.00  0.00    +0.000 A 
ATOM      2  C   UNL     1      -0.356  -3.215   0.000  0.00  0.00    +0.000 A 
ATOM      3  C   UNL     1      -1.782  -3.215   0.000  0.00  0.00    +0.000 A 
ATOM      4  C   UNL     1      -0.356  -4.046   0.000  0.00  0.00    +0.000 A 
ATOM      5  O   UNL     1       0.356  -2.799   0.000  0.00  0.00    +0.000 OA
ATOM      6  C   UNL     1      -1.782  -4.046   0.000  0.00  0.00    +0.000 A 
ATOM      7  C   UNL     1       0.356  -4.462   0.000  0.00  0.00    +0.000 A 
ATOM      8  C   UNL     1      -1.069  -4.462   0.000  0.00  0.00    +0.000 A 
ATOM      9  C   UNL     1       1.069  -3.215   0.000  0.00  0.00    +0.000 A 
ATOM     10  O   UNL     1       0.356  -5.287   0.000  0.00  0.00    +0.000 OA
ATOM     11  C   UNL     1       1.069  -4.046   0.000  0.00  0.00    +0.000 A 
ATOM     12  C   UNL     1       1.784  -4.460   0.000  0.00  0.00    +0.000 C 
ENDROOT
BRANCH   9  13
ATOM     13  C   UNL     1       1.784  -2.803   0.000  0.00  0.00    +0.000 A 
ATOM     14  C   UNL     1       1.784  -1.978   0.000  0.00  0.00    +0.000 A 
ATOM     15  C   UNL     1       2.500  -3.215   0.000  0.00  0.00    +0.000 A 
ATOM     16  C   UNL     1       2.500  -1.565   0.000  0.00  0.00    +0.000 A 
ATOM     17  C   UNL     1       3.213  -2.803   0.000  0.00  0.00    +0.000 A 
ATOM     18  C   UNL     1       3.213  -1.978   0.000  0.00  0.00    +0.000 A 
ENDBRANCH   9  13
BRANCH   3  19
ATOM     19  O   UNL     1      -2.496  -2.803   0.000  0.00  0.00    +0.000 OA
ATOM     20  C   UNL     1      -3.213  -3.215   0.000  0.00  0.00    +0.000 C 
ENDBRANCH   3  19
BRANCH   1  21
ATOM     21  C   UNL     1      -1.069  -1.974   0.000  0.00  0.00    +0.000 C 
BRANCH  21  22
ATOM     22  N   UNL     1      -1.784  -1.562   0.000  0.00  0.00    +0.000 NA
ATOM     23  C   UNL     1      -2.498  -1.974   0.000  0.00  0.00    +0.000 C 
ATOM     24  C   UNL     1      -1.784  -0.737   0.000  0.00  0.00    +0.000 C 
ENDBRANCH  21  22
ENDBRANCH   1  21
TORSDOF 4
