REMARK  Name = ormeloxifene
REMARK  7 active torsions:
REMARK  status: ('A' for Active; 'I' for Inactive)
REMARK    1  A    between atoms: C_2  and  C_5
REMARK    2  A    between atoms: C_4  and  C_8
REMARK    3  A    between atoms: C_17  and  O_22
REMARK    4  A    between atoms: C_23  and  O_25
REMARK    5  A    between atoms: O_25  and  C_26
REMARK    6  A    between atoms: C_26  and  C_27
REMARK    7  A    between atoms: C_27  and  N_28
REMARK                            x       y       z     vdW  Elec       q    Type
REMARK                         _______ _______ _______ _____ _____    ______ ____
ROOT
ATOM      1  C   UNL     1      -2.423  -4.241   0.000  0.00  0.00    +0.000 C 
ATOM      2  C   UNL     1      -1.703  -3.825   0.000  0.00  0.00    +0.000 C 
ATOM      3  O   UNL     1      -2.427  -5.065   0.000  0.00  0.00    +0.000 OA
ATOM      4  C   UNL     1      -0.987  -4.234   0.000  0.00  0.00    +0.000 C 
ATOM      5  C   UNL     1      -1.711  -5.475   0.000  0.00  0.00    +0.000 A 
ATOM      6  C   UNL     1      -0.991  -5.059   0.000  0.00  0.00    +0.000 A 
ATOM      7  C   UNL     1      -1.714  -6.299   0.000  0.00  0.00    +0.000 A 
ATOM      8  C   UNL     1      -0.275  -5.468   0.000  0.00  0.00    +0.000 A 
ATOM      9  C   UNL     1      -0.998  -6.709   0.000  0.00  0.00    +0.000 A 
ATOM     10  C   UNL     1      -0.278  -6.293   0.000  0.00  0.00    +0.000 A 
ATOM     11  C   UNL     1      -3.220  -4.454   0.000  0.00  0.00    +0.000 C 
ATOM     12  C   UNL     1      -2.636  -3.444   0.000  0.00  0.00    +0.000 C 
ENDROOT
BRANCH   2  13
ATOM     13  C   UNL     1      -1.704  -3.001   0.000  0.00  0.00    +0.000 A 
ATOM     14  C   UNL     1      -0.990  -2.588   0.000  0.00  0.00    +0.000 A 
ATOM     15  C   UNL     1      -2.419  -2.586   0.000  0.00  0.00    +0.000 A 
ATOM     16  C   UNL     1      -0.990  -1.761   0.000  0.00  0.00    +0.000 A 
ATOM     17  C   UNL     1      -2.418  -1.763   0.000  0.00  0.00    +0.000 A 
ATOM     18  C   UNL     1      -1.704  -1.351   0.000  0.00  0.00    +0.000 A 
ENDBRANCH   2  13
BRANCH   4  19
ATOM     19  C   UNL     1      -0.273  -3.822   0.000  0.00  0.00    +0.000 A 
ATOM     20  C   UNL     1       0.442  -4.237   0.000  0.00  0.00    +0.000 A 
ATOM     21  C   UNL     1      -0.273  -2.999   0.000  0.00  0.00    +0.000 A 
ATOM     22  C   UNL     1       1.156  -3.824   0.000  0.00  0.00    +0.000 A 
ATOM     23  C   UNL     1       0.442  -2.587   0.000  0.00  0.00    +0.000 A 
ATOM     24  C   UNL     1       1.156  -2.997   0.000  0.00  0.00    +0.000 A 
BRANCH  24  25
ATOM     25  O   UNL     1       1.871  -2.584   0.000  0.00  0.00    +0.000 OA
BRANCH  25  26
ATOM     26  C   UNL     1       2.584  -2.997   0.000  0.00  0.00    +0.000 C 
BRANCH  26  27
ATOM     27  C   UNL     1       3.299  -2.585   0.000  0.00  0.00    +0.000 C 
BRANCH  27  28
ATOM     28  N   UNL     1       4.014  -2.997   0.000  0.00  0.00    +0.000 NA
ATOM     29  C   UNL     1       3.903  -3.815   0.000  0.00  0.00    +0.000 C 
ATOM     30  C   UNL     1       4.817  -2.843   0.000  0.00  0.00    +0.000 C 
ATOM     31  C   UNL     1       4.683  -4.154   0.000  0.00  0.00    +0.000 C 
ATOM     32  C   UNL     1       5.232  -3.563   0.000  0.00  0.00    +0.000 C 
ENDBRANCH  27  28
ENDBRANCH  26  27
ENDBRANCH  25  26
ENDBRANCH  24  25
ENDBRANCH   4  19
BRANCH   9  33
ATOM     33  O   UNL     1      -0.999  -7.534   0.000  0.00  0.00    +0.000 OA
ATOM     34  C   UNL     1      -0.283  -7.948   0.000  0.00  0.00    +0.000 C 
ENDBRANCH   9  33
TORSDOF 7
