REMARK  Name = hidrosmin
REMARK  10 active torsions:
REMARK  status: ('A' for Active; 'I' for Inactive)
REMARK    1  A    between atoms: O_1  and  C_2
REMARK    2  A    between atoms: O_1  and  C_3
REMARK    3  A    between atoms: C_2  and  C_4
REMARK    4  A    between atoms: C_10  and  O_15
REMARK    5  A    between atoms: O_15  and  C_17
REMARK    6  A    between atoms: C_16  and  C_18
REMARK    7  A    between atoms: C_23  and  C_28
REMARK    8  A    between atoms: C_28  and  O_33
REMARK    9  A    between atoms: C_32  and  O_35
REMARK   10  A    between atoms: O_33  and  C_36
REMARK                            x       y       z     vdW  Elec       q    Type
REMARK                         _______ _______ _______ _____ _____    ______ ____
ROOT
ATOM      1  C   UNL     1      -0.356  -4.459   0.000  0.00  0.00    +0.000 A 
ATOM      2  C   UNL     1       0.356  -4.043   0.000  0.00  0.00    +0.000 A 
ATOM      3  C   UNL     1      -1.069  -4.043   0.000  0.00  0.00    +0.000 A 
ATOM      4  C   UNL     1       0.356  -3.212   0.000  0.00  0.00    +0.000 A 
ATOM      5  C   UNL     1       1.069  -4.459   0.000  0.00  0.00    +0.000 A 
ATOM      6  C   UNL     1      -1.069  -3.212   0.000  0.00  0.00    +0.000 A 
ATOM      7  O   UNL     1       1.069  -2.796   0.000  0.00  0.00    +0.000 OA
ATOM      8  C   UNL     1      -0.356  -2.796   0.000  0.00  0.00    +0.000 A 
ATOM      9  O   UNL     1       1.069  -5.284   0.000  0.00  0.00    +0.000 OA
ATOM     10  C   UNL     1       1.781  -4.043   0.000  0.00  0.00    +0.000 A 
ATOM     11  C   UNL     1       1.781  -3.212   0.000  0.00  0.00    +0.000 A 
ENDROOT
BRANCH  11  12
ATOM     12  C   UNL     1       2.495  -2.799   0.000  0.00  0.00    +0.000 A 
ATOM     13  C   UNL     1       2.495  -1.974   0.000  0.00  0.00    +0.000 A 
ATOM     14  C   UNL     1       3.212  -3.212   0.000  0.00  0.00    +0.000 A 
ATOM     15  C   UNL     1       3.212  -1.562   0.000  0.00  0.00    +0.000 A 
ATOM     16  C   UNL     1       3.924  -2.799   0.000  0.00  0.00    +0.000 A 
ATOM     17  O   UNL     1       3.212  -0.737   0.000  0.00  0.00    +0.000 OA
ATOM     18  C   UNL     1       3.924  -1.974   0.000  0.00  0.00    +0.000 A 
BRANCH  18  19
ATOM     19  O   UNL     1       4.639  -1.562   0.000  0.00  0.00    +0.000 OA
ATOM     20  C   UNL     1       5.355  -1.974   0.000  0.00  0.00    +0.000 C 
ENDBRANCH  18  19
ENDBRANCH  11  12
BRANCH   1  21
ATOM     21  O   UNL     1      -0.356  -5.284   0.000  0.00  0.00    +0.000 OA
BRANCH  21  22
ATOM     22  C   UNL     1      -1.071  -5.695   0.000  0.00  0.00    +0.000 C 
BRANCH  22  23
ATOM     23  C   UNL     1      -1.785  -5.284   0.000  0.00  0.00    +0.000 C 
ATOM     24  O   UNL     1      -2.500  -5.695   0.000  0.00  0.00    +0.000 OA
ENDBRANCH  22  23
ENDBRANCH  21  22
ENDBRANCH   1  21
BRANCH   6  25
ATOM     25  O   UNL     1      -1.783  -2.799   0.000  0.00  0.00    +0.000 OA
BRANCH  25  26
ATOM     26  C   UNL     1      -2.498  -3.212   0.000  0.00  0.00    +0.000 C 
ATOM     27  O   UNL     1      -2.498  -4.037   0.000  0.00  0.00    +0.000 OA
ATOM     28  C   UNL     1      -3.212  -2.799   0.000  0.00  0.00    +0.000 C 
ATOM     29  C   UNL     1      -3.212  -4.449   0.000  0.00  0.00    +0.000 C 
ATOM     30  O   UNL     1      -3.212  -1.974   0.000  0.00  0.00    +0.000 OA
ATOM     31  C   UNL     1      -3.929  -3.212   0.000  0.00  0.00    +0.000 C 
ATOM     32  C   UNL     1      -3.929  -4.037   0.000  0.00  0.00    +0.000 C 
ATOM     33  O   UNL     1      -4.643  -2.799   0.000  0.00  0.00    +0.000 OA
ATOM     34  O   UNL     1      -4.643  -4.449   0.000  0.00  0.00    +0.000 OA
BRANCH  29  35
ATOM     35  C   UNL     1      -3.212  -5.274   0.000  0.00  0.00    +0.000 C 
BRANCH  35  36
ATOM     36  O   UNL     1      -3.926  -5.687   0.000  0.00  0.00    +0.000 OA
BRANCH  36  37
ATOM     37  C   UNL     1      -3.926  -6.512   0.000  0.00  0.00    +0.000 C 
ATOM     38  C   UNL     1      -4.643  -6.923   0.000  0.00  0.00    +0.000 C 
ATOM     39  O   UNL     1      -3.214  -6.923   0.000  0.00  0.00    +0.000 OA
ATOM     40  O   UNL     1      -5.357  -6.512   0.000  0.00  0.00    +0.000 OA
ATOM     41  C   UNL     1      -4.643  -7.748   0.000  0.00  0.00    +0.000 C 
ATOM     42  C   UNL     1      -3.214  -7.748   0.000  0.00  0.00    +0.000 C 
ATOM     43  O   UNL     1      -5.357  -8.162   0.000  0.00  0.00    +0.000 OA
ATOM     44  C   UNL     1      -3.926  -8.162   0.000  0.00  0.00    +0.000 C 
ATOM     45  C   UNL     1      -2.498  -8.162   0.000  0.00  0.00    +0.000 C 
ATOM     46  O   UNL     1      -3.926  -8.987   0.000  0.00  0.00    +0.000 OA
ENDBRANCH  36  37
ENDBRANCH  35  36
ENDBRANCH  29  35
ENDBRANCH  25  26
ENDBRANCH   6  25
TORSDOF 10
