REMARK  Name = 
REMARK  9 active torsions:
REMARK  status: ('A' for Active; 'I' for Inactive)
REMARK    1  A    between atoms: C_9  and  O_38
REMARK    2  A    between atoms: C_10  and  C_11
REMARK    3  A    between atoms: C_23  and  O_30
REMARK    4  A    between atoms: C_26  and  O_43
REMARK    5  A    between atoms: O_30  and  C_49
REMARK    6  A    between atoms: C_32  and  C_42
REMARK    7  A    between atoms: C_36  and  O_38
REMARK    8  A    between atoms: C_42  and  O_43
REMARK    9  A    between atoms: C_45  and  C_53
REMARK                            x       y       z     vdW  Elec       q    Type
REMARK                         _______ _______ _______ _____ _____    ______ ____
ROOT
ATOM      1  C   UNL     1      -4.667  -1.042   0.000  0.00  0.00    +0.000 C 
ATOM      2  C   UNL     1      -3.667  -1.042   0.000  0.00  0.00    +0.000 C 
ATOM      3  C   UNL     1      -3.167  -0.176   0.000  0.00  0.00    +0.000 C 
ATOM      4  C   UNL     1      -3.667   0.690   0.000  0.00  0.00    +0.000 C 
ATOM      5  C   UNL     1      -4.667   0.690   0.000  0.00  0.00    +0.000 C 
ATOM      6  O   UNL     1      -5.167  -0.176   0.000  0.00  0.00    +0.000 OA
ATOM      7  O   UNL     1      -3.167   1.556   0.000  0.00  0.00    +0.000 OA
ATOM      8  O   UNL     1      -2.167  -0.176   0.000  0.00  0.00    +0.000 OA
ATOM      9  O   UNL     1      -3.167  -1.908   0.000  0.00  0.00    +0.000 OA
ENDROOT
BRANCH   5  10
ATOM     10  O   UNL     1      -5.167   1.556   0.000  0.00  0.00    +0.000 OA
BRANCH  10  19
ATOM     11  C   UNL     1      -8.631   3.556   0.000  0.00  0.00    +0.000 A 
ATOM     12  C   UNL     1      -9.497   3.056   0.000  0.00  0.00    +0.000 A 
ATOM     13  C   UNL     1      -9.497   2.056   0.000  0.00  0.00    +0.000 A 
ATOM     14  C   UNL     1      -8.631   1.556   0.000  0.00  0.00    +0.000 A 
ATOM     15  C   UNL     1      -7.765   2.056   0.000  0.00  0.00    +0.000 A 
ATOM     16  C   UNL     1      -7.765   3.056   0.000  0.00  0.00    +0.000 A 
ATOM     17  O   UNL     1      -6.899   3.556   0.000  0.00  0.00    +0.000 OA
ATOM     18  C   UNL     1      -6.899   1.556   0.000  0.00  0.00    +0.000 A 
ATOM     19  C   UNL     1      -6.033   2.056   0.000  0.00  0.00    +0.000 A 
ATOM     20  C   UNL     1      -6.033   3.056   0.000  0.00  0.00    +0.000 A 
ATOM     21  O   UNL     1      -6.899   0.556   0.000  0.00  0.00    +0.000 OA
ATOM     22  O   UNL     1      -8.631   0.556   0.000  0.00  0.00    +0.000 OA
ATOM     23  O   UNL     1     -10.363   3.556   0.000  0.00  0.00    +0.000 OA
BRANCH  20  24
ATOM     24  C   UNL     1      -5.167   3.556   0.000  0.00  0.00    +0.000 A 
ATOM     25  C   UNL     1      -4.301   5.056   0.000  0.00  0.00    +0.000 A 
ATOM     26  C   UNL     1      -5.167   4.556   0.000  0.00  0.00    +0.000 A 
ATOM     27  C   UNL     1      -4.301   3.056   0.000  0.00  0.00    +0.000 A 
ATOM     28  C   UNL     1      -3.434   3.556   0.000  0.00  0.00    +0.000 A 
ATOM     29  C   UNL     1      -3.434   4.556   0.000  0.00  0.00    +0.000 A 
ATOM     30  O   UNL     1      -2.568   5.056   0.000  0.00  0.00    +0.000 OA
ATOM     31  O   UNL     1      -4.301   6.056   0.000  0.00  0.00    +0.000 OA
ENDBRANCH  20  24
ENDBRANCH  10  19
ENDBRANCH   5  10
BRANCH   1  32
ATOM     32  C   UNL     1      -5.167  -1.908   0.000  0.00  0.00    +0.000 C 
BRANCH  32  33
ATOM     33  O   UNL     1      -6.167  -1.908   0.000  0.00  0.00    +0.000 OA
BRANCH  33  38
ATOM     34  C   UNL     1      -8.368  -3.375   0.000  0.00  0.00    +0.000 C 
ATOM     35  C   UNL     1      -7.981  -4.297   0.000  0.00  0.00    +0.000 C 
ATOM     36  C   UNL     1      -6.989  -4.423   0.000  0.00  0.00    +0.000 C 
ATOM     37  C   UNL     1      -6.384  -3.626   0.000  0.00  0.00    +0.000 C 
ATOM     38  C   UNL     1      -6.771  -2.704   0.000  0.00  0.00    +0.000 C 
ATOM     39  O   UNL     1      -7.763  -2.579   0.000  0.00  0.00    +0.000 OA
ATOM     40  O   UNL     1      -5.392  -3.752   0.000  0.00  0.00    +0.000 OA
ATOM     41  O   UNL     1      -6.602  -5.345   0.000  0.00  0.00    +0.000 OA
ATOM     42  C   UNL     1      -9.360  -3.250   0.000  0.00  0.00    +0.000 C 
BRANCH  35  43
ATOM     43  O   UNL     1      -8.586  -5.094   0.000  0.00  0.00    +0.000 OA
BRANCH  43  49
ATOM     44  O   UNL     1      -9.452  -6.594   0.000  0.00  0.00    +0.000 OA
ATOM     45  C   UNL     1      -9.452  -7.594   0.000  0.00  0.00    +0.000 C 
ATOM     46  C   UNL     1      -8.586  -8.094   0.000  0.00  0.00    +0.000 C 
ATOM     47  C   UNL     1      -7.720  -7.594   0.000  0.00  0.00    +0.000 C 
ATOM     48  C   UNL     1      -7.720  -6.594   0.000  0.00  0.00    +0.000 C 
ATOM     49  C   UNL     1      -8.586  -6.094   0.000  0.00  0.00    +0.000 C 
ATOM     50  O   UNL     1      -6.854  -6.094   0.000  0.00  0.00    +0.000 OA
ATOM     51  O   UNL     1      -6.854  -8.094   0.000  0.00  0.00    +0.000 OA
ATOM     52  O   UNL     1      -8.586  -9.094   0.000  0.00  0.00    +0.000 OA
BRANCH  45  53
ATOM     53  C   UNL     1     -10.318  -8.094   0.000  0.00  0.00    +0.000 C 
ATOM     54  O   UNL     1     -10.318  -9.094   0.000  0.00  0.00    +0.000 OA
ENDBRANCH  45  53
ENDBRANCH  43  49
ENDBRANCH  35  43
ENDBRANCH  33  38
ENDBRANCH  32  33
ENDBRANCH   1  32
TORSDOF 9
