REMARK  Name = 
REMARK  8 active torsions:
REMARK  status: ('A' for Active; 'I' for Inactive)
REMARK    1  A    between atoms: C_1  and  C_46
REMARK    2  A    between atoms: C_9  and  C_10
REMARK    3  A    between atoms: C_15  and  O_51
REMARK    4  A    between atoms: C_19  and  C_25
REMARK    5  A    between atoms: C_21  and  C_29
REMARK    6  A    between atoms: C_32  and  C_40
REMARK    7  A    between atoms: C_36  and  O_51
REMARK    8  A    between atoms: C_43  and  C_49
REMARK                            x       y       z     vdW  Elec       q    Type
REMARK                         _______ _______ _______ _____ _____    ______ ____
ROOT
ATOM      1  C   UNL     1      -4.214  -1.749   0.000  0.00  0.00    +0.000 A 
ATOM      2  C   UNL     1      -5.080  -2.249   0.000  0.00  0.00    +0.000 A 
ATOM      3  C   UNL     1      -4.214  -3.749   0.000  0.00  0.00    +0.000 A 
ATOM      4  C   UNL     1      -3.348  -3.249   0.000  0.00  0.00    +0.000 A 
ATOM      5  C   UNL     1      -3.348  -2.249   0.000  0.00  0.00    +0.000 A 
ATOM      6  O   UNL     1      -2.482  -1.749   0.000  0.00  0.00    +0.000 OA
ATOM      7  C   UNL     1      -2.482  -3.749   0.000  0.00  0.00    +0.000 A 
ATOM      8  C   UNL     1      -1.616  -3.249   0.000  0.00  0.00    +0.000 A 
ATOM      9  C   UNL     1      -1.616  -2.249   0.000  0.00  0.00    +0.000 A 
ATOM     10  O   UNL     1      -2.482  -4.749   0.000  0.00  0.00    +0.000 OA
ATOM     11  O   UNL     1      -4.214  -4.749   0.000  0.00  0.00    +0.000 OA
ATOM     12  O   UNL     1      -5.946  -1.749   0.000  0.00  0.00    +0.000 OA
ATOM     13  C   UNL     1      -5.080  -3.249   0.000  0.00  0.00    +0.000 A 
ENDROOT
BRANCH  13  19
ATOM     14  O   UNL     1      -6.808  -3.242   0.000  0.00  0.00    +0.000 OA
ATOM     15  C   UNL     1      -7.678  -3.734   0.000  0.00  0.00    +0.000 C 
ATOM     16  C   UNL     1      -7.687  -4.734   0.000  0.00  0.00    +0.000 C 
ATOM     17  C   UNL     1      -6.826  -5.242   0.000  0.00  0.00    +0.000 C 
ATOM     18  C   UNL     1      -5.955  -4.749   0.000  0.00  0.00    +0.000 C 
ATOM     19  C   UNL     1      -5.946  -3.749   0.000  0.00  0.00    +0.000 C 
ATOM     20  O   UNL     1      -5.094  -5.257   0.000  0.00  0.00    +0.000 OA
ATOM     21  O   UNL     1      -6.835  -6.241   0.000  0.00  0.00    +0.000 OA
ATOM     22  O   UNL     1      -8.558  -5.226   0.000  0.00  0.00    +0.000 OA
BRANCH  15  23
ATOM     23  C   UNL     1      -8.540  -3.226   0.000  0.00  0.00    +0.000 C 
ATOM     24  O   UNL     1      -9.410  -3.718   0.000  0.00  0.00    +0.000 OA
ENDBRANCH  15  23
ENDBRANCH  13  19
BRANCH   1  29
ATOM     25  O   UNL     1      -3.427  -0.133   0.000  0.00  0.00    +0.000 OA
ATOM     26  C   UNL     1      -3.771   0.807   0.000  0.00  0.00    +0.000 C 
ATOM     27  C   UNL     1      -4.770   0.770   0.000  0.00  0.00    +0.000 C 
ATOM     28  C   UNL     1      -5.044  -0.192   0.000  0.00  0.00    +0.000 C 
ATOM     29  C   UNL     1      -4.214  -0.749   0.000  0.00  0.00    +0.000 C 
ATOM     30  O   UNL     1      -5.983  -0.535   0.000  0.00  0.00    +0.000 OA
ATOM     31  O   UNL     1      -5.387   1.557   0.000  0.00  0.00    +0.000 OA
BRANCH  26  32
ATOM     32  C   UNL     1      -3.213   1.637   0.000  0.00  0.00    +0.000 C 
ATOM     33  O   UNL     1      -3.653   2.535   0.000  0.00  0.00    +0.000 OA
ENDBRANCH  26  32
ENDBRANCH   1  29
BRANCH   9  34
ATOM     34  C   UNL     1      -0.750  -1.749   0.000  0.00  0.00    +0.000 A 
ATOM     35  C   UNL     1       0.116  -0.249   0.000  0.00  0.00    +0.000 A 
ATOM     36  C   UNL     1      -0.750  -0.749   0.000  0.00  0.00    +0.000 A 
ATOM     37  C   UNL     1       0.116  -2.249   0.000  0.00  0.00    +0.000 A 
ATOM     38  C   UNL     1       0.982  -1.749   0.000  0.00  0.00    +0.000 A 
ATOM     39  C   UNL     1       0.982  -0.749   0.000  0.00  0.00    +0.000 A 
BRANCH  39  40
ATOM     40  O   UNL     1       1.848  -0.249   0.000  0.00  0.00    +0.000 OA
BRANCH  40  46
ATOM     41  O   UNL     1       3.578  -0.335   0.000  0.00  0.00    +0.000 OA
ATOM     42  C   UNL     1       4.468   0.122   0.000  0.00  0.00    +0.000 C 
ATOM     43  C   UNL     1       4.517   1.120   0.000  0.00  0.00    +0.000 C 
ATOM     44  C   UNL     1       3.677   1.663   0.000  0.00  0.00    +0.000 C 
ATOM     45  C   UNL     1       2.787   1.206   0.000  0.00  0.00    +0.000 C 
ATOM     46  C   UNL     1       2.738   0.207   0.000  0.00  0.00    +0.000 C 
ATOM     47  O   UNL     1       1.947   1.748   0.000  0.00  0.00    +0.000 OA
ATOM     48  O   UNL     1       3.726   2.661   0.000  0.00  0.00    +0.000 OA
ATOM     49  O   UNL     1       5.407   1.577   0.000  0.00  0.00    +0.000 OA
BRANCH  42  50
ATOM     50  C   UNL     1       5.308  -0.421   0.000  0.00  0.00    +0.000 C 
ATOM     51  O   UNL     1       6.197   0.036   0.000  0.00  0.00    +0.000 OA
ENDBRANCH  42  50
ENDBRANCH  40  46
ENDBRANCH  39  40
ENDBRANCH   9  34
TORSDOF 8
