REMARK  Name = 
REMARK  3 active torsions:
REMARK  status: ('A' for Active; 'I' for Inactive)
REMARK    1  A    between atoms: C_8  and  C_18
REMARK    2  A    between atoms: C_19  and  O_30
REMARK    3  A    between atoms: C_20  and  O_30
REMARK                            x       y       z     vdW  Elec       q    Type
REMARK                         _______ _______ _______ _____ _____    ______ ____
ROOT
ATOM      1  C   UNL     1       3.988  -2.440   0.000  0.00  0.00    +0.000 A 
ATOM      2  C   UNL     1       3.122  -3.940   0.000  0.00  0.00    +0.000 A 
ATOM      3  C   UNL     1       3.988  -3.440   0.000  0.00  0.00    +0.000 A 
ATOM      4  C   UNL     1       3.122  -1.940   0.000  0.00  0.00    +0.000 A 
ATOM      5  C   UNL     1       2.256  -3.440   0.000  0.00  0.00    +0.000 A 
ATOM      6  C   UNL     1       2.256  -2.440   0.000  0.00  0.00    +0.000 A 
ATOM      7  C   UNL     1       1.390  -1.940   0.000  0.00  0.00    +0.000 A 
ATOM      8  C   UNL     1       0.524  -3.440   0.000  0.00  0.00    +0.000 A 
ATOM      9  C   UNL     1       0.524  -2.440   0.000  0.00  0.00    +0.000 A 
ATOM     10  O   UNL     1       4.854  -3.940   0.000  0.00  0.00    +0.000 OA
ATOM     11  O   UNL     1       3.122  -0.940   0.000  0.00  0.00    +0.000 OA
ATOM     12  O   UNL     1       1.390  -0.940   0.000  0.00  0.00    +0.000 OA
ATOM     13  O   UNL     1       1.390  -3.940   0.000  0.00  0.00    +0.000 OA
ENDROOT
BRANCH   8  18
ATOM     14  C   UNL     1      -0.342  -4.940   0.000  0.00  0.00    +0.000 A 
ATOM     15  C   UNL     1      -1.208  -3.440   0.000  0.00  0.00    +0.000 A 
ATOM     16  C   UNL     1      -1.208  -5.440   0.000  0.00  0.00    +0.000 A 
ATOM     17  C   UNL     1      -2.074  -3.940   0.000  0.00  0.00    +0.000 A 
ATOM     18  C   UNL     1      -0.342  -3.940   0.000  0.00  0.00    +0.000 A 
ATOM     19  C   UNL     1      -2.074  -4.940   0.000  0.00  0.00    +0.000 A 
ATOM     20  O   UNL     1      -2.940  -5.440   0.000  0.00  0.00    +0.000 OA
ENDBRANCH   8  18
BRANCH   9  21
ATOM     21  O   UNL     1      -0.342  -1.940   0.000  0.00  0.00    +0.000 OA
BRANCH  21  26
ATOM     22  C   UNL     1      -1.970  -0.347   0.000  0.00  0.00    +0.000 C 
ATOM     23  C   UNL     1      -1.628   0.592   0.000  0.00  0.00    +0.000 C 
ATOM     24  C   UNL     1      -0.643   0.766   0.000  0.00  0.00    +0.000 C 
ATOM     25  C   UNL     1       0.000   0.000   0.000  0.00  0.00    +0.000 C 
ATOM     26  C   UNL     1      -0.342  -0.940   0.000  0.00  0.00    +0.000 C 
ATOM     27  O   UNL     1      -1.628   1.592   0.000  0.00  0.00    +0.000 OA
ATOM     28  O   UNL     1       0.223   1.266   0.000  0.00  0.00    +0.000 OA
ATOM     29  O   UNL     1       0.866  -0.500   0.000  0.00  0.00    +0.000 OA
ATOM     30  O   UNL     1      -1.327  -1.113   0.000  0.00  0.00    +0.000 OA
ENDBRANCH  21  26
ENDBRANCH   9  21
TORSDOF 3
