REMARK  Name = 
REMARK  6 active torsions:
REMARK  status: ('A' for Active; 'I' for Inactive)
REMARK    1  A    between atoms: C_7  and  C_9
REMARK    2  A    between atoms: C_10  and  O_11
REMARK    3  A    between atoms: O_11  and  C_12
REMARK    4  A    between atoms: C_18  and  O_19
REMARK    5  A    between atoms: O_19  and  C_20
REMARK    6  A    between atoms: C_20  and  C_21
REMARK                            x       y       z     vdW  Elec       q    Type
REMARK                         _______ _______ _______ _____ _____    ______ ____
ROOT
ATOM      1  C   UNL     1      14.011  -8.958   0.000  0.00  0.00    +0.000 A 
ATOM      2  C   UNL     1      14.011  -9.958   0.000  0.00  0.00    +0.000 A 
ATOM      3  O   UNL     1      14.877  -8.458   0.000  0.00  0.00    +0.000 OA
ATOM      4  C   UNL     1      15.744  -8.958   0.000  0.00  0.00    +0.000 A 
ATOM      5  C   UNL     1      15.744  -9.958   0.000  0.00  0.00    +0.000 A 
ATOM      6  C   UNL     1      14.877 -10.458   0.000  0.00  0.00    +0.000 A 
ATOM      7  O   UNL     1      14.877 -11.458   0.000  0.00  0.00    +0.000 OA
ATOM      8  C   UNL     1      16.610  -8.458   0.000  0.00  0.00    +0.000 A 
ATOM      9  C   UNL     1      17.475  -8.958   0.000  0.00  0.00    +0.000 A 
ATOM     10  C   UNL     1      17.475  -9.958   0.000  0.00  0.00    +0.000 A 
ATOM     11  C   UNL     1      16.610 -10.458   0.000  0.00  0.00    +0.000 A 
ATOM     12  O   UNL     1      16.610 -11.458   0.000  0.00  0.00    +0.000 OA
ATOM     13  O   UNL     1      18.341  -8.458   0.000  0.00  0.00    +0.000 OA
ENDROOT
BRANCH   1  20
ATOM     14  C   UNL     1      11.414  -7.458   0.000  0.00  0.00    +0.000 A 
ATOM     15  O   UNL     1      10.547  -6.958   0.000  0.00  0.00    +0.000 OA
ATOM     16  C   UNL     1      11.414  -8.458   0.000  0.00  0.00    +0.000 A 
ATOM     17  O   UNL     1      10.547  -8.958   0.000  0.00  0.00    +0.000 OA
ATOM     18  C   UNL     1      12.280  -6.958   0.000  0.00  0.00    +0.000 A 
ATOM     19  C   UNL     1      13.145  -7.458   0.000  0.00  0.00    +0.000 A 
ATOM     20  C   UNL     1      13.145  -8.458   0.000  0.00  0.00    +0.000 A 
ATOM     21  C   UNL     1      12.280  -8.958   0.000  0.00  0.00    +0.000 A 
ATOM     22  O   UNL     1      12.280  -5.958   0.000  0.00  0.00    +0.000 OA
ENDBRANCH   1  20
BRANCH   2  23
ATOM     23  O   UNL     1      13.145 -10.458   0.000  0.00  0.00    +0.000 OA
BRANCH  23  24
ATOM     24  C   UNL     1      13.145 -11.458   0.000  0.00  0.00    +0.000 C 
ATOM     25  C   UNL     1      12.280 -11.958   0.000  0.00  0.00    +0.000 C 
ATOM     26  O   UNL     1      11.414 -11.458   0.000  0.00  0.00    +0.000 OA
ATOM     27  O   UNL     1      14.011 -11.958   0.000  0.00  0.00    +0.000 OA
ATOM     28  C   UNL     1      14.011 -12.958   0.000  0.00  0.00    +0.000 C 
ATOM     29  C   UNL     1      13.145 -13.458   0.000  0.00  0.00    +0.000 C 
ATOM     30  C   UNL     1      12.280 -12.958   0.000  0.00  0.00    +0.000 C 
ATOM     31  O   UNL     1      13.145 -14.458   0.000  0.00  0.00    +0.000 OA
ATOM     32  C   UNL     1      14.877 -13.458   0.000  0.00  0.00    +0.000 C 
BRANCH  30  33
ATOM     33  O   UNL     1      11.414 -13.458   0.000  0.00  0.00    +0.000 OA
BRANCH  33  34
ATOM     34  C   UNL     1      11.414 -14.458   0.000  0.00  0.00    +0.000 C 
ATOM     35  O   UNL     1      12.280 -14.958   0.000  0.00  0.00    +0.000 OA
BRANCH  34  36
ATOM     36  C   UNL     1      10.547 -14.958   0.000  0.00  0.00    +0.000 A 
ATOM     37  C   UNL     1       9.681 -14.458   0.000  0.00  0.00    +0.000 A 
ATOM     38  C   UNL     1      10.547 -15.958   0.000  0.00  0.00    +0.000 A 
ATOM     39  C   UNL     1       9.681 -16.458   0.000  0.00  0.00    +0.000 A 
ATOM     40  O   UNL     1       9.681 -17.458   0.000  0.00  0.00    +0.000 OA
ATOM     41  C   UNL     1       8.815 -15.958   0.000  0.00  0.00    +0.000 A 
ATOM     42  O   UNL     1       7.949 -16.458   0.000  0.00  0.00    +0.000 OA
ATOM     43  C   UNL     1       8.815 -14.958   0.000  0.00  0.00    +0.000 A 
ATOM     44  O   UNL     1       7.949 -14.458   0.000  0.00  0.00    +0.000 OA
ENDBRANCH  34  36
ENDBRANCH  33  34
ENDBRANCH  30  33
ENDBRANCH  23  24
ENDBRANCH   2  23
TORSDOF 6
