REMARK  Name = 
REMARK  7 active torsions:
REMARK  status: ('A' for Active; 'I' for Inactive)
REMARK    1  A    between atoms: C_9  and  C_18
REMARK    2  A    between atoms: C_9  and  O_40
REMARK    3  A    between atoms: C_10  and  C_26
REMARK    4  A    between atoms: C_11  and  C_27
REMARK    5  A    between atoms: C_13  and  O_41
REMARK    6  A    between atoms: C_27  and  O_40
REMARK    7  A    between atoms: C_28  and  O_41
REMARK                            x       y       z     vdW  Elec       q    Type
REMARK                         _______ _______ _______ _____ _____    ______ ____
ROOT
ATOM      1  C   UNL     1      -4.330  -0.500   0.000  0.00  0.00    +0.000 C 
ATOM      2  C   UNL     1      -4.330  -1.500   0.000  0.00  0.00    +0.000 C 
ATOM      3  C   UNL     1      -3.464  -2.000   0.000  0.00  0.00    +0.000 C 
ATOM      4  C   UNL     1      -2.598  -1.500   0.000  0.00  0.00    +0.000 C 
ATOM      5  C   UNL     1      -2.598  -0.500   0.000  0.00  0.00    +0.000 C 
ATOM      6  O   UNL     1      -5.196  -2.000   0.000  0.00  0.00    +0.000 OA
ATOM      7  O   UNL     1      -3.464  -3.000   0.000  0.00  0.00    +0.000 OA
ATOM      8  O   UNL     1      -1.732  -2.000   0.000  0.00  0.00    +0.000 OA
ATOM      9  O   UNL     1      -3.464   0.000   0.000  0.00  0.00    +0.000 OA
ENDROOT
BRANCH   1  10
ATOM     10  C   UNL     1      -5.196   0.000   0.000  0.00  0.00    +0.000 C 
BRANCH  10  11
ATOM     11  O   UNL     1      -5.196   1.000   0.000  0.00  0.00    +0.000 OA
BRANCH  11  12
ATOM     12  C   UNL     1      -6.062   1.500   0.000  0.00  0.00    +0.000 C 
ATOM     13  O   UNL     1      -6.928   1.000   0.000  0.00  0.00    +0.000 OA
BRANCH  12  16
ATOM     14  C   UNL     1      -6.928   3.000   0.000  0.00  0.00    +0.000 A 
ATOM     15  C   UNL     1      -5.196   3.000   0.000  0.00  0.00    +0.000 A 
ATOM     16  C   UNL     1      -6.062   2.500   0.000  0.00  0.00    +0.000 A 
ATOM     17  C   UNL     1      -6.928   4.000   0.000  0.00  0.00    +0.000 A 
ATOM     18  C   UNL     1      -5.196   4.000   0.000  0.00  0.00    +0.000 A 
ATOM     19  C   UNL     1      -6.062   4.500   0.000  0.00  0.00    +0.000 A 
ATOM     20  O   UNL     1      -7.794   4.500   0.000  0.00  0.00    +0.000 OA
ATOM     21  O   UNL     1      -4.330   4.500   0.000  0.00  0.00    +0.000 OA
ATOM     22  O   UNL     1      -6.062   5.500   0.000  0.00  0.00    +0.000 OA
ENDBRANCH  12  16
ENDBRANCH  11  12
ENDBRANCH  10  11
ENDBRANCH   1  10
BRANCH   5  23
ATOM     23  O   UNL     1      -1.732   0.000   0.000  0.00  0.00    +0.000 OA
BRANCH  23  26
ATOM     24  C   UNL     1      -0.866  -1.500   0.000  0.00  0.00    +0.000 A 
ATOM     25  C   UNL     1       0.000   0.000   0.000  0.00  0.00    +0.000 A 
ATOM     26  C   UNL     1      -0.866  -0.500   0.000  0.00  0.00    +0.000 A 
ATOM     27  C   UNL     1       0.000  -2.000   0.000  0.00  0.00    +0.000 A 
ATOM     28  C   UNL     1       0.866  -0.500   0.000  0.00  0.00    +0.000 A 
ATOM     29  C   UNL     1       0.866  -1.500   0.000  0.00  0.00    +0.000 A 
ATOM     30  C   UNL     1       1.732  -2.000   0.000  0.00  0.00    +0.000 A 
ATOM     31  C   UNL     1       2.598  -1.500   0.000  0.00  0.00    +0.000 A 
ATOM     32  C   UNL     1       2.598  -0.500   0.000  0.00  0.00    +0.000 A 
ATOM     33  O   UNL     1       0.000  -3.000   0.000  0.00  0.00    +0.000 OA
ATOM     34  O   UNL     1       1.732  -3.000   0.000  0.00  0.00    +0.000 OA
ATOM     35  O   UNL     1       3.464  -2.000   0.000  0.00  0.00    +0.000 OA
ATOM     36  O   UNL     1       1.732   0.000   0.000  0.00  0.00    +0.000 OA
BRANCH  32  41
ATOM     37  C   UNL     1       4.330  -0.500   0.000  0.00  0.00    +0.000 A 
ATOM     38  C   UNL     1       3.464   1.000   0.000  0.00  0.00    +0.000 A 
ATOM     39  C   UNL     1       5.196   0.000   0.000  0.00  0.00    +0.000 A 
ATOM     40  C   UNL     1       4.330   1.500   0.000  0.00  0.00    +0.000 A 
ATOM     41  C   UNL     1       3.464   0.000   0.000  0.00  0.00    +0.000 A 
ATOM     42  C   UNL     1       5.196   1.000   0.000  0.00  0.00    +0.000 A 
ATOM     43  O   UNL     1       6.062   1.500   0.000  0.00  0.00    +0.000 OA
ENDBRANCH  32  41
ENDBRANCH  23  26
ENDBRANCH   5  23
TORSDOF 7
