REMARK  Name = 
REMARK  4 active torsions:
REMARK  status: ('A' for Active; 'I' for Inactive)
REMARK    1  A    between atoms: O_2  and  C_15
REMARK    2  A    between atoms: O_2  and  C_17
REMARK    3  A    between atoms: C_14  and  C_16
REMARK    4  A    between atoms: C_19  and  C_24
REMARK                            x       y       z     vdW  Elec       q    Type
REMARK                         _______ _______ _______ _____ _____    ______ ____
ROOT
ATOM      1  O   UNL     1      12.457  -8.047   0.000  0.00  0.00    +0.000 OA
ATOM      2  O   UNL     1      12.422 -11.028   0.000  0.00  0.00    +0.000 OA
ATOM      3  O   UNL     1       8.948  -7.982   0.000  0.00  0.00    +0.000 OA
ATOM      4  C   UNL     1      10.684 -10.049   0.000  0.00  0.00    +0.000 A 
ATOM      5  C   UNL     1      11.579  -9.527   0.000  0.00  0.00    +0.000 A 
ATOM      6  C   UNL     1      13.312  -8.554   0.000  0.00  0.00    +0.000 C 
ATOM      7  C   UNL     1      13.300  -9.547   0.000  0.00  0.00    +0.000 C 
ATOM      8  C   UNL     1      11.590  -8.534   0.000  0.00  0.00    +0.000 A 
ATOM      9  C   UNL     1      12.434 -10.034   0.000  0.00  0.00    +0.000 C 
ATOM     10  C   UNL     1       9.789  -9.527   0.000  0.00  0.00    +0.000 A 
ATOM     11  C   UNL     1      10.708  -7.992   0.000  0.00  0.00    +0.000 A 
ATOM     12  C   UNL     1       9.801  -8.492   0.000  0.00  0.00    +0.000 A 
ENDROOT
BRANCH   6  14
ATOM     13  O   UNL     1      16.777  -6.606   0.000  0.00  0.00    +0.000 OA
ATOM     14  C   UNL     1      14.178  -8.067   0.000  0.00  0.00    +0.000 A 
ATOM     15  C   UNL     1      15.033  -8.573   0.000  0.00  0.00    +0.000 A 
ATOM     16  C   UNL     1      14.189  -7.073   0.000  0.00  0.00    +0.000 A 
ATOM     17  C   UNL     1      15.899  -8.086   0.000  0.00  0.00    +0.000 A 
ATOM     18  C   UNL     1      15.056  -6.586   0.000  0.00  0.00    +0.000 A 
ATOM     19  C   UNL     1      15.911  -7.093   0.000  0.00  0.00    +0.000 A 
ENDBRANCH   6  14
BRANCH   4  20
ATOM     20  O   UNL     1      10.684 -11.043   0.000  0.00  0.00    +0.000 OA
BRANCH  20  29
ATOM     21  O   UNL     1       8.962 -11.043   0.000  0.00  0.00    +0.000 OA
ATOM     22  O   UNL     1       8.962 -14.024   0.000  0.00  0.00    +0.000 OA
ATOM     23  O   UNL     1       7.241 -13.030   0.000  0.00  0.00    +0.000 OA
ATOM     24  O   UNL     1      10.684 -13.030   0.000  0.00  0.00    +0.000 OA
ATOM     25  C   UNL     1       8.962 -13.030   0.000  0.00  0.00    +0.000 C 
ATOM     26  C   UNL     1       8.102 -12.533   0.000  0.00  0.00    +0.000 C 
ATOM     27  C   UNL     1       9.823 -12.533   0.000  0.00  0.00    +0.000 C 
ATOM     28  C   UNL     1       8.102 -11.540   0.000  0.00  0.00    +0.000 C 
ATOM     29  C   UNL     1       9.823 -11.540   0.000  0.00  0.00    +0.000 C 
BRANCH  28  31
ATOM     30  O   UNL     1       6.380 -11.540   0.000  0.00  0.00    +0.000 OA
ATOM     31  C   UNL     1       7.241 -11.043   0.000  0.00  0.00    +0.000 C 
ENDBRANCH  28  31
ENDBRANCH  20  29
ENDBRANCH   4  20
TORSDOF 4
