REMARK  Name = 
REMARK  4 active torsions:
REMARK  status: ('A' for Active; 'I' for Inactive)
REMARK    1  A    between atoms: C_8  and  C_12
REMARK    2  A    between atoms: C_9  and  O_19
REMARK    3  A    between atoms: O_19  and  C_20
REMARK    4  A    between atoms: C_24  and  C_29
REMARK                            x       y       z     vdW  Elec       q    Type
REMARK                         _______ _______ _______ _____ _____    ______ ____
ROOT
ATOM      1  C   UNL     1      11.947  -7.058   0.000  0.00  0.00    +0.000 A 
ATOM      2  C   UNL     1      11.947  -8.059   0.000  0.00  0.00    +0.000 A 
ATOM      3  C   UNL     1      12.808  -8.556   0.000  0.00  0.00    +0.000 A 
ATOM      4  C   UNL     1      12.808  -6.553   0.000  0.00  0.00    +0.000 A 
ATOM      5  C   UNL     1      13.670  -7.058   0.000  0.00  0.00    +0.000 A 
ATOM      6  C   UNL     1      13.670  -8.059   0.000  0.00  0.00    +0.000 A 
ATOM      7  O   UNL     1      14.524  -8.556   0.000  0.00  0.00    +0.000 OA
ATOM      8  C   UNL     1      15.393  -8.067   0.000  0.00  0.00    +0.000 C 
ATOM      9  C   UNL     1      15.401  -7.065   0.000  0.00  0.00    +0.000 C 
ATOM     10  C   UNL     1      14.532  -6.561   0.000  0.00  0.00    +0.000 C 
ATOM     11  O   UNL     1      14.540  -5.559   0.000  0.00  0.00    +0.000 OA
ATOM     12  O   UNL     1      12.808  -5.551   0.000  0.00  0.00    +0.000 OA
ATOM     13  O   UNL     1      11.077  -8.564   0.000  0.00  0.00    +0.000 OA
ENDROOT
BRANCH   8  14
ATOM     14  C   UNL     1      16.255  -8.571   0.000  0.00  0.00    +0.000 A 
ATOM     15  C   UNL     1      16.247  -9.573   0.000  0.00  0.00    +0.000 A 
ATOM     16  C   UNL     1      17.109 -10.078   0.000  0.00  0.00    +0.000 A 
ATOM     17  C   UNL     1      17.979  -9.581   0.000  0.00  0.00    +0.000 A 
ATOM     18  C   UNL     1      17.986  -8.579   0.000  0.00  0.00    +0.000 A 
ATOM     19  C   UNL     1      17.125  -8.075   0.000  0.00  0.00    +0.000 A 
ATOM     20  O   UNL     1      18.840 -10.093   0.000  0.00  0.00    +0.000 OA
ENDBRANCH   8  14
BRANCH   9  21
ATOM     21  O   UNL     1      16.271  -6.568   0.000  0.00  0.00    +0.000 OA
BRANCH  21  22
ATOM     22  C   UNL     1      16.279  -5.567   0.000  0.00  0.00    +0.000 C 
ATOM     23  C   UNL     1      17.156  -5.078   0.000  0.00  0.00    +0.000 C 
ATOM     24  C   UNL     1      17.164  -4.076   0.000  0.00  0.00    +0.000 C 
ATOM     25  C   UNL     1      16.302  -3.572   0.000  0.00  0.00    +0.000 C 
ATOM     26  C   UNL     1      15.425  -4.061   0.000  0.00  0.00    +0.000 C 
ATOM     27  O   UNL     1      15.417  -5.070   0.000  0.00  0.00    +0.000 OA
ATOM     28  O   UNL     1      18.018  -5.582   0.000  0.00  0.00    +0.000 OA
ATOM     29  O   UNL     1      18.033  -3.587   0.000  0.00  0.00    +0.000 OA
ATOM     30  O   UNL     1      16.310  -2.570   0.000  0.00  0.00    +0.000 OA
BRANCH  26  31
ATOM     31  C   UNL     1      14.563  -3.556   0.000  0.00  0.00    +0.000 C 
ATOM     32  O   UNL     1      13.693  -4.045   0.000  0.00  0.00    +0.000 OA
ENDBRANCH  26  31
ENDBRANCH  21  22
ENDBRANCH   9  21
TORSDOF 4
