REMARK  Name = 
REMARK  13 active torsions:
REMARK  status: ('A' for Active; 'I' for Inactive)
REMARK    1  A    between atoms: C_1  and  C_56
REMARK    2  A    between atoms: C_2  and  C_7
REMARK    3  A    between atoms: C_12  and  O_20
REMARK    4  A    between atoms: O_20  and  C_21
REMARK    5  A    between atoms: C_23  and  C_30
REMARK    6  A    between atoms: C_30  and  O_31
REMARK    7  A    between atoms: O_31  and  C_34
REMARK    8  A    between atoms: C_45  and  C_50
REMARK    9  A    between atoms: C_55  and  O_63
REMARK   10  A    between atoms: O_63  and  C_64
REMARK   11  A    between atoms: C_66  and  C_73
REMARK   12  A    between atoms: C_73  and  O_74
REMARK   13  A    between atoms: O_74  and  C_77
REMARK                            x       y       z     vdW  Elec       q    Type
REMARK                         _______ _______ _______ _____ _____    ______ ____
ROOT
ATOM      1  C   UNL     1      16.476 -10.435   0.000  0.00  0.00    +0.000 A 
ATOM      2  C   UNL     1      16.476 -11.437   0.000  0.00  0.00    +0.000 A 
ATOM      3  C   UNL     1      17.352 -11.937   0.000  0.00  0.00    +0.000 A 
ATOM      4  C   UNL     1      18.210 -11.437   0.000  0.00  0.00    +0.000 A 
ATOM      5  C   UNL     1      18.210 -10.435   0.000  0.00  0.00    +0.000 A 
ATOM      6  C   UNL     1      17.352  -9.935   0.000  0.00  0.00    +0.000 A 
ATOM      7  O   UNL     1      19.086  -9.935   0.000  0.00  0.00    +0.000 OA
ATOM      8  O   UNL     1      17.352  -8.933   0.000  0.00  0.00    +0.000 OA
ENDROOT
BRANCH   2   9
ATOM      9  C   UNL     1      15.617 -11.937   0.000  0.00  0.00    +0.000 A 
ATOM     10  O   UNL     1      14.759 -11.437   0.000  0.00  0.00    +0.000 OA
ATOM     11  C   UNL     1      13.883 -11.937   0.000  0.00  0.00    +0.000 A 
ATOM     12  C   UNL     1      13.883 -12.939   0.000  0.00  0.00    +0.000 A 
ATOM     13  C   UNL     1      14.759 -13.439   0.000  0.00  0.00    +0.000 A 
ATOM     14  C   UNL     1      15.617 -12.939   0.000  0.00  0.00    +0.000 A 
ATOM     15  C   UNL     1      13.025 -11.437   0.000  0.00  0.00    +0.000 A 
ATOM     16  C   UNL     1      12.148 -11.937   0.000  0.00  0.00    +0.000 A 
ATOM     17  C   UNL     1      12.148 -12.939   0.000  0.00  0.00    +0.000 A 
ATOM     18  C   UNL     1      13.025 -13.439   0.000  0.00  0.00    +0.000 A 
ATOM     19  O   UNL     1      14.759 -14.423   0.000  0.00  0.00    +0.000 OA
ATOM     20  O   UNL     1      13.025 -14.423   0.000  0.00  0.00    +0.000 OA
ATOM     21  O   UNL     1      11.290 -11.437   0.000  0.00  0.00    +0.000 OA
BRANCH  14  22
ATOM     22  O   UNL     1      16.476 -13.439   0.000  0.00  0.00    +0.000 OA
BRANCH  22  23
ATOM     23  C   UNL     1      16.476 -14.423   0.000  0.00  0.00    +0.000 C 
ATOM     24  O   UNL     1      15.617 -14.924   0.000  0.00  0.00    +0.000 OA
ATOM     25  C   UNL     1      15.617 -15.925   0.000  0.00  0.00    +0.000 C 
ATOM     26  C   UNL     1      16.476 -16.426   0.000  0.00  0.00    +0.000 C 
ATOM     27  C   UNL     1      17.352 -15.925   0.000  0.00  0.00    +0.000 C 
ATOM     28  C   UNL     1      17.352 -14.924   0.000  0.00  0.00    +0.000 C 
ATOM     29  O   UNL     1      18.210 -14.423   0.000  0.00  0.00    +0.000 OA
ATOM     30  O   UNL     1      18.210 -16.426   0.000  0.00  0.00    +0.000 OA
ATOM     31  O   UNL     1      16.476 -17.427   0.000  0.00  0.00    +0.000 OA
BRANCH  25  32
ATOM     32  C   UNL     1      14.759 -16.426   0.000  0.00  0.00    +0.000 C 
BRANCH  32  33
ATOM     33  O   UNL     1      14.759 -17.427   0.000  0.00  0.00    +0.000 OA
BRANCH  33  34
ATOM     34  C   UNL     1      13.883 -17.928   0.000  0.00  0.00    +0.000 C 
ATOM     35  O   UNL     1      13.025 -17.427   0.000  0.00  0.00    +0.000 OA
ATOM     36  C   UNL     1      12.148 -17.928   0.000  0.00  0.00    +0.000 C 
ATOM     37  C   UNL     1      12.148 -18.929   0.000  0.00  0.00    +0.000 C 
ATOM     38  C   UNL     1      13.025 -19.430   0.000  0.00  0.00    +0.000 C 
ATOM     39  C   UNL     1      13.883 -18.929   0.000  0.00  0.00    +0.000 C 
ATOM     40  O   UNL     1      14.759 -19.430   0.000  0.00  0.00    +0.000 OA
ATOM     41  O   UNL     1      13.025 -20.431   0.000  0.00  0.00    +0.000 OA
ATOM     42  O   UNL     1      11.290 -19.430   0.000  0.00  0.00    +0.000 OA
ATOM     43  C   UNL     1      11.290 -17.427   0.000  0.00  0.00    +0.000 C 
ENDBRANCH  33  34
ENDBRANCH  32  33
ENDBRANCH  25  32
ENDBRANCH  22  23
ENDBRANCH  14  22
ENDBRANCH   2   9
BRANCH   1  50
ATOM     44  C   UNL     1      17.119  -7.539   0.000  0.00  0.00    +0.000 A 
ATOM     45  O   UNL     1      16.887  -8.504   0.000  0.00  0.00    +0.000 OA
ATOM     46  C   UNL     1      15.921  -8.790   0.000  0.00  0.00    +0.000 A 
ATOM     47  C   UNL     1      15.206  -8.093   0.000  0.00  0.00    +0.000 A 
ATOM     48  C   UNL     1      15.438  -7.127   0.000  0.00  0.00    +0.000 A 
ATOM     49  C   UNL     1      16.404  -6.841   0.000  0.00  0.00    +0.000 A 
ATOM     50  C   UNL     1      15.689  -9.756   0.000  0.00  0.00    +0.000 A 
ATOM     51  C   UNL     1      14.723 -10.042   0.000  0.00  0.00    +0.000 A 
ATOM     52  C   UNL     1      14.008  -9.345   0.000  0.00  0.00    +0.000 A 
ATOM     53  C   UNL     1      14.240  -8.379   0.000  0.00  0.00    +0.000 A 
ATOM     54  O   UNL     1      14.723  -6.430   0.000  0.00  0.00    +0.000 OA
ATOM     55  O   UNL     1      13.525  -7.682   0.000  0.00  0.00    +0.000 OA
ATOM     56  O   UNL     1      14.491 -11.008   0.000  0.00  0.00    +0.000 OA
BRANCH  44  58
ATOM     57  C   UNL     1      18.800  -7.950   0.000  0.00  0.00    +0.000 A 
ATOM     58  C   UNL     1      18.085  -7.253   0.000  0.00  0.00    +0.000 A 
ATOM     59  C   UNL     1      18.317  -6.287   0.000  0.00  0.00    +0.000 A 
ATOM     60  C   UNL     1      19.283  -6.001   0.000  0.00  0.00    +0.000 A 
ATOM     61  C   UNL     1      19.998  -6.698   0.000  0.00  0.00    +0.000 A 
ATOM     62  C   UNL     1      19.766  -7.664   0.000  0.00  0.00    +0.000 A 
ATOM     63  O   UNL     1      20.964  -6.430   0.000  0.00  0.00    +0.000 OA
ATOM     64  O   UNL     1      20.481  -8.361   0.000  0.00  0.00    +0.000 OA
ENDBRANCH  44  58
BRANCH  49  65
ATOM     65  O   UNL     1      16.637  -5.876   0.000  0.00  0.00    +0.000 OA
BRANCH  65  66
ATOM     66  C   UNL     1      15.921  -5.178   0.000  0.00  0.00    +0.000 C 
ATOM     67  O   UNL     1      14.956  -5.465   0.000  0.00  0.00    +0.000 OA
ATOM     68  C   UNL     1      14.240  -4.767   0.000  0.00  0.00    +0.000 C 
ATOM     69  C   UNL     1      14.473  -3.802   0.000  0.00  0.00    +0.000 C 
ATOM     70  C   UNL     1      15.438  -3.515   0.000  0.00  0.00    +0.000 C 
ATOM     71  C   UNL     1      16.154  -4.213   0.000  0.00  0.00    +0.000 C 
ATOM     72  O   UNL     1      17.119  -3.927   0.000  0.00  0.00    +0.000 OA
ATOM     73  O   UNL     1      15.671  -2.550   0.000  0.00  0.00    +0.000 OA
ATOM     74  O   UNL     1      13.758  -3.104   0.000  0.00  0.00    +0.000 OA
BRANCH  68  75
ATOM     75  C   UNL     1      13.275  -5.053   0.000  0.00  0.00    +0.000 C 
BRANCH  75  76
ATOM     76  O   UNL     1      12.560  -4.356   0.000  0.00  0.00    +0.000 OA
BRANCH  76  77
ATOM     77  C   UNL     1      11.594  -4.642   0.000  0.00  0.00    +0.000 C 
ATOM     78  O   UNL     1      11.362  -5.608   0.000  0.00  0.00    +0.000 OA
ATOM     79  C   UNL     1      10.396  -5.894   0.000  0.00  0.00    +0.000 C 
ATOM     80  C   UNL     1       9.681  -5.196   0.000  0.00  0.00    +0.000 C 
ATOM     81  C   UNL     1       9.913  -4.231   0.000  0.00  0.00    +0.000 C 
ATOM     82  C   UNL     1      10.879  -3.945   0.000  0.00  0.00    +0.000 C 
ATOM     83  O   UNL     1      11.111  -2.979   0.000  0.00  0.00    +0.000 OA
ATOM     84  O   UNL     1       9.198  -3.533   0.000  0.00  0.00    +0.000 OA
ATOM     85  O   UNL     1       8.715  -5.482   0.000  0.00  0.00    +0.000 OA
ATOM     86  C   UNL     1      10.164  -6.859   0.000  0.00  0.00    +0.000 C 
ENDBRANCH  76  77
ENDBRANCH  75  76
ENDBRANCH  68  75
ENDBRANCH  65  66
ENDBRANCH  49  65
ENDBRANCH   1  50
TORSDOF 13
