REMARK  Name = 
REMARK  3 active torsions:
REMARK  status: ('A' for Active; 'I' for Inactive)
REMARK    1  A    between atoms: C_14  and  C_17
REMARK    2  A    between atoms: C_16  and  C_18
REMARK    3  A    between atoms: C_25  and  C_27
REMARK                            x       y       z     vdW  Elec       q    Type
REMARK                         _______ _______ _______ _____ _____    ______ ____
ROOT
ATOM      1  O   UNL     1      13.965  -7.056   0.000  0.00  0.00    +0.000 OA
ATOM      2  O   UNL     1      12.243  -4.074   0.000  0.00  0.00    +0.000 OA
ATOM      3  O   UNL     1      15.714  -4.040   0.000  0.00  0.00    +0.000 OA
ATOM      4  O   UNL     1      15.703  -7.091   0.000  0.00  0.00    +0.000 OA
ATOM      5  C   UNL     1      13.104  -5.565   0.000  0.00  0.00    +0.000 A 
ATOM      6  C   UNL     1      13.965  -6.062   0.000  0.00  0.00    +0.000 A 
ATOM      7  C   UNL     1      13.104  -4.571   0.000  0.00  0.00    +0.000 A 
ATOM      8  C   UNL     1      14.826  -5.565   0.000  0.00  0.00    +0.000 A 
ATOM      9  C   UNL     1      13.965  -4.074   0.000  0.00  0.00    +0.000 A 
ATOM     10  C   UNL     1      14.826  -4.571   0.000  0.00  0.00    +0.000 A 
ATOM     11  C   UNL     1      15.714  -6.097   0.000  0.00  0.00    +0.000 A 
ATOM     12  C   UNL     1      16.615  -4.551   0.000  0.00  0.00    +0.000 A 
ATOM     13  C   UNL     1      16.615  -5.586   0.000  0.00  0.00    +0.000 A 
ENDROOT
BRANCH   5  20
ATOM     14  O   UNL     1      12.243  -7.056   0.000  0.00  0.00    +0.000 OA
ATOM     15  O   UNL     1      11.382  -4.571   0.000  0.00  0.00    +0.000 OA
ATOM     16  O   UNL     1       9.660  -5.565   0.000  0.00  0.00    +0.000 OA
ATOM     17  O   UNL     1       9.660  -7.553   0.000  0.00  0.00    +0.000 OA
ATOM     18  C   UNL     1      11.382  -5.565   0.000  0.00  0.00    +0.000 C 
ATOM     19  C   UNL     1      10.521  -6.062   0.000  0.00  0.00    +0.000 C 
ATOM     20  C   UNL     1      12.243  -6.062   0.000  0.00  0.00    +0.000 C 
ATOM     21  C   UNL     1      10.521  -7.056   0.000  0.00  0.00    +0.000 C 
ATOM     22  C   UNL     1      11.382  -7.553   0.000  0.00  0.00    +0.000 C 
BRANCH  22  24
ATOM     23  O   UNL     1      10.521  -9.045   0.000  0.00  0.00    +0.000 OA
ATOM     24  C   UNL     1      11.382  -8.548   0.000  0.00  0.00    +0.000 C 
ENDBRANCH  22  24
ENDBRANCH   5  20
BRANCH  12  27
ATOM     25  O   UNL     1      20.058  -4.537   0.000  0.00  0.00    +0.000 OA
ATOM     26  O   UNL     1      20.051  -2.549   0.000  0.00  0.00    +0.000 OA
ATOM     27  C   UNL     1      17.474  -4.050   0.000  0.00  0.00    +0.000 A 
ATOM     28  C   UNL     1      18.337  -4.544   0.000  0.00  0.00    +0.000 A 
ATOM     29  C   UNL     1      17.470  -3.056   0.000  0.00  0.00    +0.000 A 
ATOM     30  C   UNL     1      19.196  -4.043   0.000  0.00  0.00    +0.000 A 
ATOM     31  C   UNL     1      18.329  -2.556   0.000  0.00  0.00    +0.000 A 
ATOM     32  C   UNL     1      19.192  -3.049   0.000  0.00  0.00    +0.000 A 
ENDBRANCH  12  27
TORSDOF 3
