REMARK  Name = 
REMARK  7 active torsions:
REMARK  status: ('A' for Active; 'I' for Inactive)
REMARK    1  A    between atoms: C_6  and  C_7
REMARK    2  A    between atoms: C_8  and  O_20
REMARK    3  A    between atoms: O_20  and  C_21
REMARK    4  A    between atoms: C_22  and  O_31
REMARK    5  A    between atoms: C_25  and  C_27
REMARK    6  A    between atoms: O_31  and  C_32
REMARK    7  A    between atoms: C_36  and  C_38
REMARK                            x       y       z     vdW  Elec       q    Type
REMARK                         _______ _______ _______ _____ _____    ______ ____
ROOT
ATOM      1  C   UNL     1      14.880  -7.055   0.000  0.00  0.00    +0.000 C 
ATOM      2  C   UNL     1      14.018  -7.554   0.000  0.00  0.00    +0.000 C 
ATOM      3  C   UNL     1      14.018  -8.562   0.000  0.00  0.00    +0.000 C 
ATOM      4  C   UNL     1      14.880  -9.060   0.000  0.00  0.00    +0.000 C 
ATOM      5  C   UNL     1      15.743  -8.562   0.000  0.00  0.00    +0.000 C 
ATOM      6  O   UNL     1      15.743  -7.554   0.000  0.00  0.00    +0.000 OA
ATOM      7  O   UNL     1      14.880 -10.058   0.000  0.00  0.00    +0.000 OA
ATOM      8  O   UNL     1      13.145  -9.060   0.000  0.00  0.00    +0.000 OA
ENDROOT
BRANCH   5   9
ATOM      9  C   UNL     1      16.616  -9.060   0.000  0.00  0.00    +0.000 C 
ATOM     10  O   UNL     1      17.478  -8.562   0.000  0.00  0.00    +0.000 OA
ENDBRANCH   5   9
BRANCH   1  11
ATOM     11  O   UNL     1      14.880  -6.058   0.000  0.00  0.00    +0.000 OA
BRANCH  11  13
ATOM     12  C   UNL     1      15.743  -4.562   0.000  0.00  0.00    +0.000 A 
ATOM     13  C   UNL     1      15.743  -5.559   0.000  0.00  0.00    +0.000 A 
ATOM     14  C   UNL     1      16.616  -6.058   0.000  0.00  0.00    +0.000 A 
ATOM     15  O   UNL     1      16.616  -7.055   0.000  0.00  0.00    +0.000 OA
ATOM     16  C   UNL     1      17.478  -5.559   0.000  0.00  0.00    +0.000 A 
ATOM     17  C   UNL     1      18.340  -6.058   0.000  0.00  0.00    +0.000 A 
ATOM     18  C   UNL     1      19.213  -5.559   0.000  0.00  0.00    +0.000 A 
ATOM     19  C   UNL     1      19.213  -4.562   0.000  0.00  0.00    +0.000 A 
ATOM     20  C   UNL     1      18.340  -4.063   0.000  0.00  0.00    +0.000 A 
ATOM     21  C   UNL     1      17.478  -4.562   0.000  0.00  0.00    +0.000 A 
ATOM     22  O   UNL     1      16.616  -4.063   0.000  0.00  0.00    +0.000 OA
ATOM     23  O   UNL     1      20.075  -4.063   0.000  0.00  0.00    +0.000 OA
ATOM     24  O   UNL     1      18.340  -7.055   0.000  0.00  0.00    +0.000 OA
BRANCH  12  30
ATOM     25  C   UNL     1      14.880  -3.055   0.000  0.00  0.00    +0.000 A 
ATOM     26  C   UNL     1      14.018  -2.556   0.000  0.00  0.00    +0.000 A 
ATOM     27  C   UNL     1      13.145  -3.055   0.000  0.00  0.00    +0.000 A 
ATOM     28  C   UNL     1      13.145  -4.063   0.000  0.00  0.00    +0.000 A 
ATOM     29  C   UNL     1      14.018  -4.562   0.000  0.00  0.00    +0.000 A 
ATOM     30  C   UNL     1      14.880  -4.063   0.000  0.00  0.00    +0.000 A 
ATOM     31  O   UNL     1      12.283  -2.556   0.000  0.00  0.00    +0.000 OA
ENDBRANCH  12  30
ENDBRANCH  11  13
ENDBRANCH   1  11
BRANCH   2  32
ATOM     32  O   UNL     1      13.145  -7.055   0.000  0.00  0.00    +0.000 OA
BRANCH  32  33
ATOM     33  C   UNL     1      12.283  -7.554   0.000  0.00  0.00    +0.000 C 
ATOM     34  C   UNL     1      11.421  -7.055   0.000  0.00  0.00    +0.000 C 
ATOM     35  C   UNL     1      10.548  -7.554   0.000  0.00  0.00    +0.000 C 
ATOM     36  C   UNL     1      10.548  -8.562   0.000  0.00  0.00    +0.000 C 
ATOM     37  C   UNL     1      11.421  -9.060   0.000  0.00  0.00    +0.000 C 
ATOM     38  O   UNL     1      12.283  -8.562   0.000  0.00  0.00    +0.000 OA
ATOM     39  O   UNL     1       9.685  -9.060   0.000  0.00  0.00    +0.000 OA
ATOM     40  O   UNL     1       9.685  -7.055   0.000  0.00  0.00    +0.000 OA
ATOM     41  O   UNL     1      11.421  -6.058   0.000  0.00  0.00    +0.000 OA
BRANCH  37  42
ATOM     42  C   UNL     1      11.421 -10.058   0.000  0.00  0.00    +0.000 C 
ATOM     43  O   UNL     1      12.283 -10.556   0.000  0.00  0.00    +0.000 OA
ENDBRANCH  37  42
ENDBRANCH  32  33
ENDBRANCH   2  32
TORSDOF 7
