REMARK  Name = 
REMARK  6 active torsions:
REMARK  status: ('A' for Active; 'I' for Inactive)
REMARK    1  A    between atoms: C_9  and  O_21
REMARK    2  A    between atoms: C_10  and  C_13
REMARK    3  A    between atoms: O_21  and  C_26
REMARK    4  A    between atoms: C_30  and  C_31
REMARK    5  A    between atoms: C_31  and  O_32
REMARK    6  A    between atoms: O_32  and  C_37
REMARK                            x       y       z     vdW  Elec       q    Type
REMARK                         _______ _______ _______ _____ _____    ______ ____
ROOT
ATOM      1  C   UNL     1      11.910  -4.558   0.000  0.00  0.00    +0.000 A 
ATOM      2  C   UNL     1      11.909  -5.561   0.000  0.00  0.00    +0.000 A 
ATOM      3  C   UNL     1      12.776  -6.062   0.000  0.00  0.00    +0.000 A 
ATOM      4  C   UNL     1      12.774  -4.057   0.000  0.00  0.00    +0.000 A 
ATOM      5  C   UNL     1      13.642  -4.553   0.000  0.00  0.00    +0.000 A 
ATOM      6  C   UNL     1      13.641  -5.558   0.000  0.00  0.00    +0.000 A 
ATOM      7  C   UNL     1      14.506  -6.059   0.000  0.00  0.00    +0.000 A 
ATOM      8  C   UNL     1      15.378  -5.560   0.000  0.00  0.00    +0.000 A 
ATOM      9  C   UNL     1      15.380  -4.556   0.000  0.00  0.00    +0.000 A 
ATOM     10  O   UNL     1      14.509  -4.049   0.000  0.00  0.00    +0.000 OA
ATOM     11  O   UNL     1      14.503  -7.059   0.000  0.00  0.00    +0.000 OA
ATOM     12  O   UNL     1      12.779  -7.062   0.000  0.00  0.00    +0.000 OA
ATOM     13  O   UNL     1      11.043  -4.058   0.000  0.00  0.00    +0.000 OA
ENDROOT
BRANCH   9  15
ATOM     14  O   UNL     1      18.845  -2.568   0.000  0.00  0.00    +0.000 OA
ATOM     15  C   UNL     1      16.240  -4.061   0.000  0.00  0.00    +0.000 A 
ATOM     16  C   UNL     1      17.106  -4.566   0.000  0.00  0.00    +0.000 A 
ATOM     17  C   UNL     1      17.974  -4.069   0.000  0.00  0.00    +0.000 A 
ATOM     18  C   UNL     1      17.977  -3.068   0.000  0.00  0.00    +0.000 A 
ATOM     19  C   UNL     1      17.105  -2.565   0.000  0.00  0.00    +0.000 A 
ATOM     20  C   UNL     1      16.241  -3.066   0.000  0.00  0.00    +0.000 A 
ATOM     21  O   UNL     1      18.839  -4.572   0.000  0.00  0.00    +0.000 OA
ENDBRANCH   9  15
BRANCH   8  22
ATOM     22  O   UNL     1      16.237  -6.063   0.000  0.00  0.00    +0.000 OA
BRANCH  22  27
ATOM     23  O   UNL     1      17.965  -7.068   0.000  0.00  0.00    +0.000 OA
ATOM     24  O   UNL     1      17.956  -9.071   0.000  0.00  0.00    +0.000 OA
ATOM     25  O   UNL     1      16.220 -10.061   0.000  0.00  0.00    +0.000 OA
ATOM     26  O   UNL     1      15.362  -7.558   0.000  0.00  0.00    +0.000 OA
ATOM     27  C   UNL     1      16.236  -7.058   0.000  0.00  0.00    +0.000 C 
ATOM     28  C   UNL     1      17.101  -7.562   0.000  0.00  0.00    +0.000 C 
ATOM     29  C   UNL     1      17.091  -8.567   0.000  0.00  0.00    +0.000 C 
ATOM     30  C   UNL     1      16.224  -9.065   0.000  0.00  0.00    +0.000 C 
ATOM     31  C   UNL     1      15.360  -8.560   0.000  0.00  0.00    +0.000 C 
BRANCH  31  32
ATOM     32  C   UNL     1      14.491  -9.052   0.000  0.00  0.00    +0.000 C 
BRANCH  32  33
ATOM     33  O   UNL     1      14.479 -10.052   0.000  0.00  0.00    +0.000 OA
BRANCH  33  38
ATOM     34  O   UNL     1      14.479 -12.044   0.000  0.00  0.00    +0.000 OA
ATOM     35  O   UNL     1      12.748 -13.041   0.000  0.00  0.00    +0.000 OA
ATOM     36  O   UNL     1      11.024 -12.040   0.000  0.00  0.00    +0.000 OA
ATOM     37  O   UNL     1      12.752 -10.046   0.000  0.00  0.00    +0.000 OA
ATOM     38  C   UNL     1      13.621 -10.548   0.000  0.00  0.00    +0.000 C 
ATOM     39  C   UNL     1      13.620 -11.546   0.000  0.00  0.00    +0.000 C 
ATOM     40  C   UNL     1      12.749 -12.042   0.000  0.00  0.00    +0.000 C 
ATOM     41  C   UNL     1      11.885 -11.544   0.000  0.00  0.00    +0.000 C 
ATOM     42  C   UNL     1      11.886 -10.546   0.000  0.00  0.00    +0.000 C 
ENDBRANCH  33  38
ENDBRANCH  32  33
ENDBRANCH  31  32
ENDBRANCH  22  27
ENDBRANCH   8  22
TORSDOF 6
