REMARK  Name = 
REMARK  7 active torsions:
REMARK  status: ('A' for Active; 'I' for Inactive)
REMARK    1  A    between atoms: O_2  and  C_22
REMARK    2  A    between atoms: O_2  and  C_26
REMARK    3  A    between atoms: O_6  and  C_25
REMARK    4  A    between atoms: O_6  and  C_29
REMARK    5  A    between atoms: O_15  and  C_41
REMARK    6  A    between atoms: C_17  and  C_26
REMARK    7  A    between atoms: C_30  and  C_33
REMARK                            x       y       z     vdW  Elec       q    Type
REMARK                         _______ _______ _______ _____ _____    ______ ____
ROOT
ATOM      1  O   UNL     1      13.486  -7.523   0.000  0.00  0.00    +0.000 OA
ENDROOT
BRANCH   1   6
ATOM      2  O   UNL     1      15.211  -5.532   0.000  0.00  0.00    +0.000 OA
ATOM      3  O   UNL     1      15.211  -8.519   0.000  0.00  0.00    +0.000 OA
ATOM      4  O   UNL     1      16.951  -8.553   0.000  0.00  0.00    +0.000 OA
ATOM      5  O   UNL     1      18.726  -5.508   0.000  0.00  0.00    +0.000 OA
ATOM      6  C   UNL     1      14.348  -7.025   0.000  0.00  0.00    +0.000 A 
ATOM      7  C   UNL     1      14.348  -6.029   0.000  0.00  0.00    +0.000 A 
ATOM      8  C   UNL     1      15.211  -7.523   0.000  0.00  0.00    +0.000 A 
ATOM      9  C   UNL     1      16.073  -7.025   0.000  0.00  0.00    +0.000 A 
ATOM     10  C   UNL     1      16.073  -6.029   0.000  0.00  0.00    +0.000 A 
ATOM     11  C   UNL     1      16.963  -7.558   0.000  0.00  0.00    +0.000 A 
ATOM     12  C   UNL     1      16.963  -5.497   0.000  0.00  0.00    +0.000 A 
ATOM     13  C   UNL     1      17.865  -7.046   0.000  0.00  0.00    +0.000 A 
ATOM     14  C   UNL     1      17.865  -6.009   0.000  0.00  0.00    +0.000 A 
BRANCH   7  16
ATOM     15  O   UNL     1      10.899  -4.038   0.000  0.00  0.00    +0.000 OA
ATOM     16  C   UNL     1      13.486  -5.532   0.000  0.00  0.00    +0.000 A 
ATOM     17  C   UNL     1      13.486  -4.536   0.000  0.00  0.00    +0.000 A 
ATOM     18  C   UNL     1      12.624  -6.029   0.000  0.00  0.00    +0.000 A 
ATOM     19  C   UNL     1      12.624  -4.038   0.000  0.00  0.00    +0.000 A 
ATOM     20  C   UNL     1      11.761  -5.532   0.000  0.00  0.00    +0.000 A 
ATOM     21  C   UNL     1      11.761  -4.536   0.000  0.00  0.00    +0.000 A 
BRANCH  19  22
ATOM     22  O   UNL     1      12.624  -3.042   0.000  0.00  0.00    +0.000 OA
ATOM     23  C   UNL     1      13.486  -2.545   0.000  0.00  0.00    +0.000 C 
ENDBRANCH  19  22
ENDBRANCH   7  16
ENDBRANCH   1   6
BRANCH   1  32
ATOM     24  O   UNL     1      14.348  -9.017   0.000  0.00  0.00    +0.000 OA
ATOM     25  O   UNL     1      13.486 -11.506   0.000  0.00  0.00    +0.000 OA
ATOM     26  O   UNL     1      11.761 -10.510   0.000  0.00  0.00    +0.000 OA
ATOM     27  O   UNL     1      11.761  -8.519   0.000  0.00  0.00    +0.000 OA
ATOM     28  C   UNL     1      14.348 -10.012   0.000  0.00  0.00    +0.000 C 
ATOM     29  C   UNL     1      13.486 -10.510   0.000  0.00  0.00    +0.000 C 
ATOM     30  C   UNL     1      12.624 -10.012   0.000  0.00  0.00    +0.000 C 
ATOM     31  C   UNL     1      12.624  -9.017   0.000  0.00  0.00    +0.000 C 
ATOM     32  C   UNL     1      13.486  -8.519   0.000  0.00  0.00    +0.000 C 
BRANCH  28  33
ATOM     33  C   UNL     1      15.211 -10.510   0.000  0.00  0.00    +0.000 C 
BRANCH  33  34
ATOM     34  O   UNL     1      15.211 -11.506   0.000  0.00  0.00    +0.000 OA
BRANCH  34  40
ATOM     35  O   UNL     1      16.935 -11.506   0.000  0.00  0.00    +0.000 OA
ATOM     36  O   UNL     1      15.211 -13.497   0.000  0.00  0.00    +0.000 OA
ATOM     37  O   UNL     1      16.935 -14.493   0.000  0.00  0.00    +0.000 OA
ATOM     38  O   UNL     1      18.660 -13.497   0.000  0.00  0.00    +0.000 OA
ATOM     39  C   UNL     1      16.073 -12.999   0.000  0.00  0.00    +0.000 C 
ATOM     40  C   UNL     1      16.073 -12.004   0.000  0.00  0.00    +0.000 C 
ATOM     41  C   UNL     1      16.935 -13.497   0.000  0.00  0.00    +0.000 C 
ATOM     42  C   UNL     1      17.797 -12.999   0.000  0.00  0.00    +0.000 C 
ATOM     43  C   UNL     1      17.797 -12.004   0.000  0.00  0.00    +0.000 C 
ATOM     44  C   UNL     1      18.660 -11.506   0.000  0.00  0.00    +0.000 C 
ENDBRANCH  34  40
ENDBRANCH  33  34
ENDBRANCH  28  33
ENDBRANCH   1  32
TORSDOF 7
