REMARK  Name = 
REMARK  6 active torsions:
REMARK  status: ('A' for Active; 'I' for Inactive)
REMARK    1  A    between atoms: C_6  and  O_8
REMARK    2  A    between atoms: O_8  and  C_9
REMARK    3  A    between atoms: C_16  and  C_32
REMARK    4  A    between atoms: C_17  and  O_20
REMARK    5  A    between atoms: O_20  and  C_21
REMARK    6  A    between atoms: C_25  and  C_27
REMARK                            x       y       z     vdW  Elec       q    Type
REMARK                         _______ _______ _______ _____ _____    ______ ____
ROOT
ATOM      1  C   UNL     1      13.712  -4.572   0.000  0.00  0.00    +0.000 A 
ATOM      2  C   UNL     1      13.712  -5.576   0.000  0.00  0.00    +0.000 A 
ATOM      3  C   UNL     1      14.569  -6.083   0.000  0.00  0.00    +0.000 A 
ATOM      4  C   UNL     1      15.426  -5.576   0.000  0.00  0.00    +0.000 A 
ATOM      5  C   UNL     1      15.426  -4.572   0.000  0.00  0.00    +0.000 A 
ATOM      6  C   UNL     1      14.569  -4.076   0.000  0.00  0.00    +0.000 A 
ATOM      7  O   UNL     1      16.306  -4.076   0.000  0.00  0.00    +0.000 OA
ATOM      8  C   UNL     1      17.163  -4.572   0.000  0.00  0.00    +0.000 A 
ATOM      9  C   UNL     1      17.163  -5.576   0.000  0.00  0.00    +0.000 A 
ATOM     10  C   UNL     1      16.306  -6.083   0.000  0.00  0.00    +0.000 A 
ATOM     11  O   UNL     1      16.306  -7.075   0.000  0.00  0.00    +0.000 OA
ATOM     12  O   UNL     1      14.569  -7.075   0.000  0.00  0.00    +0.000 OA
ENDROOT
BRANCH   8  13
ATOM     13  C   UNL     1      18.032  -4.076   0.000  0.00  0.00    +0.000 A 
ATOM     14  C   UNL     1      18.032  -3.072   0.000  0.00  0.00    +0.000 A 
ATOM     15  C   UNL     1      18.889  -2.576   0.000  0.00  0.00    +0.000 A 
ATOM     16  C   UNL     1      19.768  -3.072   0.000  0.00  0.00    +0.000 A 
ATOM     17  C   UNL     1      19.768  -4.076   0.000  0.00  0.00    +0.000 A 
ATOM     18  C   UNL     1      18.889  -4.572   0.000  0.00  0.00    +0.000 A 
ATOM     19  O   UNL     1      20.625  -2.576   0.000  0.00  0.00    +0.000 OA
ENDBRANCH   8  13
BRANCH   1  20
ATOM     20  O   UNL     1      12.832  -4.076   0.000  0.00  0.00    +0.000 OA
BRANCH  20  26
ATOM     21  C   UNL     1      11.107  -7.075   0.000  0.00  0.00    +0.000 C 
ATOM     22  C   UNL     1      11.107  -6.083   0.000  0.00  0.00    +0.000 C 
ATOM     23  C   UNL     1      10.239  -5.576   0.000  0.00  0.00    +0.000 C 
ATOM     24  C   UNL     1      10.239  -4.572   0.000  0.00  0.00    +0.000 C 
ATOM     25  C   UNL     1      11.107  -4.076   0.000  0.00  0.00    +0.000 C 
ATOM     26  C   UNL     1      11.976  -4.572   0.000  0.00  0.00    +0.000 C 
ATOM     27  O   UNL     1      11.976  -5.576   0.000  0.00  0.00    +0.000 OA
ATOM     28  O   UNL     1      11.107  -3.072   0.000  0.00  0.00    +0.000 OA
ATOM     29  O   UNL     1       9.370  -4.076   0.000  0.00  0.00    +0.000 OA
ATOM     30  O   UNL     1       9.370  -6.083   0.000  0.00  0.00    +0.000 OA
ENDBRANCH  20  26
ENDBRANCH   1  20
BRANCH   9  31
ATOM     31  O   UNL     1      18.032  -6.083   0.000  0.00  0.00    +0.000 OA
BRANCH  31  32
ATOM     32  C   UNL     1      18.032  -7.075   0.000  0.00  0.00    +0.000 C 
ATOM     33  C   UNL     1      18.889  -7.583   0.000  0.00  0.00    +0.000 C 
ATOM     34  C   UNL     1      18.889  -8.575   0.000  0.00  0.00    +0.000 C 
ATOM     35  C   UNL     1      18.032  -9.072   0.000  0.00  0.00    +0.000 C 
ATOM     36  C   UNL     1      17.163  -8.575   0.000  0.00  0.00    +0.000 C 
ATOM     37  O   UNL     1      17.163  -7.583   0.000  0.00  0.00    +0.000 OA
ATOM     38  O   UNL     1      18.032 -10.075   0.000  0.00  0.00    +0.000 OA
ATOM     39  O   UNL     1      19.768  -9.072   0.000  0.00  0.00    +0.000 OA
ATOM     40  O   UNL     1      19.768  -7.075   0.000  0.00  0.00    +0.000 OA
BRANCH  36  41
ATOM     41  C   UNL     1      16.306  -9.072   0.000  0.00  0.00    +0.000 C 
ATOM     42  O   UNL     1      16.306 -10.075   0.000  0.00  0.00    +0.000 OA
ENDBRANCH  36  41
ENDBRANCH  31  32
ENDBRANCH   9  31
TORSDOF 6
