REMARK  Name = 
REMARK  6 active torsions:
REMARK  status: ('A' for Active; 'I' for Inactive)
REMARK    1  A    between atoms: O_1  and  C_6
REMARK    2  A    between atoms: O_1  and  C_19
REMARK    3  A    between atoms: O_12  and  C_17
REMARK    4  A    between atoms: O_12  and  C_30
REMARK    5  A    between atoms: C_21  and  C_22
REMARK    6  A    between atoms: C_31  and  C_33
REMARK                            x       y       z     vdW  Elec       q    Type
REMARK                         _______ _______ _______ _____ _____    ______ ____
ROOT
ATOM      1  O   UNL     1      13.963  -6.080   0.000  0.00  0.00    +0.000 OA
ENDROOT
BRANCH   1   9
ATOM      2  C   UNL     1       9.635  -4.593   0.000  0.00  0.00    +0.000 A 
ATOM      3  C   UNL     1       9.634  -5.595   0.000  0.00  0.00    +0.000 A 
ATOM      4  C   UNL     1      10.500  -6.095   0.000  0.00  0.00    +0.000 A 
ATOM      5  C   UNL     1      10.497  -4.093   0.000  0.00  0.00    +0.000 A 
ATOM      6  C   UNL     1      11.363  -4.588   0.000  0.00  0.00    +0.000 A 
ATOM      7  C   UNL     1      11.365  -5.590   0.000  0.00  0.00    +0.000 A 
ATOM      8  C   UNL     1      12.229  -6.086   0.000  0.00  0.00    +0.000 A 
ATOM      9  C   UNL     1      13.097  -5.586   0.000  0.00  0.00    +0.000 A 
ATOM     10  C   UNL     1      13.095  -4.584   0.000  0.00  0.00    +0.000 A 
ATOM     11  O   UNL     1      12.225  -4.082   0.000  0.00  0.00    +0.000 OA
ATOM     12  O   UNL     1      12.230  -7.086   0.000  0.00  0.00    +0.000 OA
ATOM     13  O   UNL     1      10.502  -7.094   0.000  0.00  0.00    +0.000 OA
ATOM     14  O   UNL     1       8.770  -4.093   0.000  0.00  0.00    +0.000 OA
BRANCH  10  15
ATOM     15  C   UNL     1      13.957  -4.087   0.000  0.00  0.00    +0.000 A 
ATOM     16  C   UNL     1      14.826  -4.582   0.000  0.00  0.00    +0.000 A 
ATOM     17  C   UNL     1      15.687  -4.078   0.000  0.00  0.00    +0.000 A 
ATOM     18  C   UNL     1      15.680  -3.078   0.000  0.00  0.00    +0.000 A 
ATOM     19  C   UNL     1      14.806  -2.585   0.000  0.00  0.00    +0.000 A 
ATOM     20  C   UNL     1      13.949  -3.092   0.000  0.00  0.00    +0.000 A 
ATOM     21  O   UNL     1      16.542  -2.571   0.000  0.00  0.00    +0.000 OA
ENDBRANCH  10  15
ENDBRANCH   1   9
BRANCH   1  25
ATOM     22  O   UNL     1      15.702  -5.092   0.000  0.00  0.00    +0.000 OA
ATOM     23  O   UNL     1      17.412  -8.100   0.000  0.00  0.00    +0.000 OA
ATOM     24  O   UNL     1      14.820  -7.586   0.000  0.00  0.00    +0.000 OA
ATOM     25  C   UNL     1      14.826  -6.580   0.000  0.00  0.00    +0.000 C 
ATOM     26  C   UNL     1      15.695  -6.087   0.000  0.00  0.00    +0.000 C 
ATOM     27  C   UNL     1      16.558  -6.598   0.000  0.00  0.00    +0.000 C 
ATOM     28  C   UNL     1      16.554  -7.597   0.000  0.00  0.00    +0.000 C 
ATOM     29  C   UNL     1      15.684  -8.091   0.000  0.00  0.00    +0.000 C 
BRANCH  29  31
ATOM     30  O   UNL     1      16.612  -9.434   0.000  0.00  0.00    +0.000 OA
ATOM     31  C   UNL     1      15.673  -9.088   0.000  0.00  0.00    +0.000 C 
ENDBRANCH  29  31
BRANCH  27  32
ATOM     32  O   UNL     1      17.424  -6.100   0.000  0.00  0.00    +0.000 OA
BRANCH  32  37
ATOM     33  O   UNL     1      17.424  -4.095   0.000  0.00  0.00    +0.000 OA
ATOM     34  O   UNL     1      19.161  -3.093   0.000  0.00  0.00    +0.000 OA
ATOM     35  O   UNL     1      20.893  -4.095   0.000  0.00  0.00    +0.000 OA
ATOM     36  O   UNL     1      19.161  -6.100   0.000  0.00  0.00    +0.000 OA
ATOM     37  C   UNL     1      18.288  -5.596   0.000  0.00  0.00    +0.000 C 
ATOM     38  C   UNL     1      18.288  -4.594   0.000  0.00  0.00    +0.000 C 
ATOM     39  C   UNL     1      19.161  -4.095   0.000  0.00  0.00    +0.000 C 
ATOM     40  C   UNL     1      20.030  -4.594   0.000  0.00  0.00    +0.000 C 
ATOM     41  C   UNL     1      20.030  -5.596   0.000  0.00  0.00    +0.000 C 
ATOM     42  C   UNL     1      20.893  -6.100   0.000  0.00  0.00    +0.000 C 
ENDBRANCH  32  37
ENDBRANCH  27  32
ENDBRANCH   1  25
TORSDOF 6
