REMARK  Name = 
REMARK  6 active torsions:
REMARK  status: ('A' for Active; 'I' for Inactive)
REMARK    1  A    between atoms: C_5  and  O_7
REMARK    2  A    between atoms: O_7  and  C_37
REMARK    3  A    between atoms: C_12  and  C_22
REMARK    4  A    between atoms: C_16  and  O_18
REMARK    5  A    between atoms: O_18  and  C_24
REMARK    6  A    between atoms: C_32  and  C_34
REMARK                            x       y       z     vdW  Elec       q    Type
REMARK                         _______ _______ _______ _____ _____    ______ ____
ROOT
ATOM      1  C   UNL     1      11.939  -5.582   0.000  0.00  0.00    +0.000 A 
ATOM      2  C   UNL     1      11.938  -6.587   0.000  0.00  0.00    +0.000 A 
ATOM      3  C   UNL     1      12.804  -7.091   0.000  0.00  0.00    +0.000 A 
ATOM      4  C   UNL     1      12.802  -5.083   0.000  0.00  0.00    +0.000 A 
ATOM      5  C   UNL     1      13.674  -5.582   0.000  0.00  0.00    +0.000 A 
ATOM      6  C   UNL     1      13.670  -6.581   0.000  0.00  0.00    +0.000 A 
ATOM      7  C   UNL     1      14.541  -7.082   0.000  0.00  0.00    +0.000 A 
ATOM      8  C   UNL     1      15.409  -6.583   0.000  0.00  0.00    +0.000 A 
ATOM      9  C   UNL     1      15.407  -5.578   0.000  0.00  0.00    +0.000 A 
ATOM     10  O   UNL     1      14.536  -5.072   0.000  0.00  0.00    +0.000 OA
ATOM     11  O   UNL     1      14.541  -8.084   0.000  0.00  0.00    +0.000 OA
ATOM     12  O   UNL     1      12.807  -8.093   0.000  0.00  0.00    +0.000 OA
ENDROOT
BRANCH   9  13
ATOM     13  C   UNL     1      16.270  -5.077   0.000  0.00  0.00    +0.000 A 
ATOM     14  C   UNL     1      17.145  -5.576   0.000  0.00  0.00    +0.000 A 
ATOM     15  C   UNL     1      18.006  -5.067   0.000  0.00  0.00    +0.000 A 
ATOM     16  C   UNL     1      17.999  -4.065   0.000  0.00  0.00    +0.000 A 
ATOM     17  C   UNL     1      17.123  -3.568   0.000  0.00  0.00    +0.000 A 
ATOM     18  C   UNL     1      16.260  -4.080   0.000  0.00  0.00    +0.000 A 
BRANCH  16  19
ATOM     19  O   UNL     1      18.860  -3.556   0.000  0.00  0.00    +0.000 OA
BRANCH  19  24
ATOM     20  C   UNL     1      20.574  -5.545   0.000  0.00  0.00    +0.000 C 
ATOM     21  C   UNL     1      21.439  -5.051   0.000  0.00  0.00    +0.000 C 
ATOM     22  C   UNL     1      21.442  -4.060   0.000  0.00  0.00    +0.000 C 
ATOM     23  C   UNL     1      20.587  -3.557   0.000  0.00  0.00    +0.000 C 
ATOM     24  C   UNL     1      19.722  -4.051   0.000  0.00  0.00    +0.000 C 
ATOM     25  O   UNL     1      19.711  -5.047   0.000  0.00  0.00    +0.000 OA
ATOM     26  O   UNL     1      20.594  -2.561   0.000  0.00  0.00    +0.000 OA
ATOM     27  O   UNL     1      22.307  -3.566   0.000  0.00  0.00    +0.000 OA
ATOM     28  O   UNL     1      22.301  -5.553   0.000  0.00  0.00    +0.000 OA
ATOM     29  C   UNL     1      20.572  -6.541   0.000  0.00  0.00    +0.000 C 
ENDBRANCH  19  24
ENDBRANCH  16  19
ENDBRANCH   9  13
BRANCH   1  30
ATOM     30  O   UNL     1      11.072  -5.084   0.000  0.00  0.00    +0.000 OA
BRANCH  30  35
ATOM     31  C   UNL     1       8.479  -5.567   0.000  0.00  0.00    +0.000 C 
ATOM     32  C   UNL     1       8.470  -6.568   0.000  0.00  0.00    +0.000 C 
ATOM     33  C   UNL     1       9.330  -7.071   0.000  0.00  0.00    +0.000 C 
ATOM     34  C   UNL     1      10.198  -6.583   0.000  0.00  0.00    +0.000 C 
ATOM     35  C   UNL     1      10.207  -5.582   0.000  0.00  0.00    +0.000 C 
ATOM     36  O   UNL     1       9.347  -5.069   0.000  0.00  0.00    +0.000 OA
ATOM     37  O   UNL     1      11.060  -7.093   0.000  0.00  0.00    +0.000 OA
ATOM     38  O   UNL     1       9.321  -8.072   0.000  0.00  0.00    +0.000 OA
ATOM     39  O   UNL     1       7.599  -7.063   0.000  0.00  0.00    +0.000 OA
BRANCH  31  40
ATOM     40  C   UNL     1       7.615  -5.061   0.000  0.00  0.00    +0.000 C 
ATOM     41  O   UNL     1       7.620  -4.060   0.000  0.00  0.00    +0.000 OA
ENDBRANCH  31  40
ENDBRANCH  30  35
ENDBRANCH   1  30
TORSDOF 6
