REMARK  Name = 
REMARK  5 active torsions:
REMARK  status: ('A' for Active; 'I' for Inactive)
REMARK    1  A    between atoms: O_2  and  C_13
REMARK    2  A    between atoms: O_2  and  C_15
REMARK    3  A    between atoms: O_8  and  C_21
REMARK    4  A    between atoms: C_22  and  O_31
REMARK    5  A    between atoms: C_23  and  C_24
REMARK                            x       y       z     vdW  Elec       q    Type
REMARK                         _______ _______ _______ _____ _____    ______ ____
ROOT
ATOM      1  O   UNL     1      20.700  -7.421   0.000  0.00  0.00    +0.000 OA
ATOM      2  O   UNL     1      20.665 -10.403   0.000  0.00  0.00    +0.000 OA
ATOM      3  C   UNL     1      18.927  -9.423   0.000  0.00  0.00    +0.000 A 
ATOM      4  C   UNL     1      19.822  -8.902   0.000  0.00  0.00    +0.000 A 
ATOM      5  C   UNL     1      19.833  -7.908   0.000  0.00  0.00    +0.000 A 
ATOM      6  C   UNL     1      18.032  -8.902   0.000  0.00  0.00    +0.000 A 
ATOM      7  C   UNL     1      20.677  -9.409   0.000  0.00  0.00    +0.000 C 
ATOM      8  C   UNL     1      21.544  -8.922   0.000  0.00  0.00    +0.000 C 
ATOM      9  C   UNL     1      18.044  -7.866   0.000  0.00  0.00    +0.000 A 
ATOM     10  C   UNL     1      18.951  -7.366   0.000  0.00  0.00    +0.000 A 
ATOM     11  C   UNL     1      21.555  -7.928   0.000  0.00  0.00    +0.000 C 
ENDROOT
BRANCH  11  12
ATOM     12  C   UNL     1      22.422  -7.441   0.000  0.00  0.00    +0.000 A 
ATOM     13  C   UNL     1      23.277  -7.948   0.000  0.00  0.00    +0.000 A 
ATOM     14  C   UNL     1      22.433  -6.447   0.000  0.00  0.00    +0.000 A 
ATOM     15  C   UNL     1      24.143  -7.460   0.000  0.00  0.00    +0.000 A 
ATOM     16  C   UNL     1      23.300  -5.960   0.000  0.00  0.00    +0.000 A 
ATOM     17  C   UNL     1      24.155  -6.466   0.000  0.00  0.00    +0.000 A 
ENDBRANCH  11  12
BRANCH   9  18
ATOM     18  O   UNL     1      17.191  -7.356   0.000  0.00  0.00    +0.000 OA
ATOM     19  C   UNL     1      16.323  -7.840   0.000  0.00  0.00    +0.000 C 
ENDBRANCH   9  18
BRANCH  10  20
ATOM     20  O   UNL     1      18.974  -6.372   0.000  0.00  0.00    +0.000 OA
ATOM     21  C   UNL     1      18.125  -5.855   0.000  0.00  0.00    +0.000 C 
ENDBRANCH  10  20
BRANCH   3  22
ATOM     22  O   UNL     1      18.927 -10.417   0.000  0.00  0.00    +0.000 OA
BRANCH  22  31
ATOM     23  O   UNL     1      17.205 -10.417   0.000  0.00  0.00    +0.000 OA
ATOM     24  O   UNL     1      17.205 -13.399   0.000  0.00  0.00    +0.000 OA
ATOM     25  O   UNL     1      15.483 -12.405   0.000  0.00  0.00    +0.000 OA
ATOM     26  O   UNL     1      18.927 -12.405   0.000  0.00  0.00    +0.000 OA
ATOM     27  C   UNL     1      17.205 -12.405   0.000  0.00  0.00    +0.000 C 
ATOM     28  C   UNL     1      16.344 -11.908   0.000  0.00  0.00    +0.000 C 
ATOM     29  C   UNL     1      18.066 -11.908   0.000  0.00  0.00    +0.000 C 
ATOM     30  C   UNL     1      16.344 -10.914   0.000  0.00  0.00    +0.000 C 
ATOM     31  C   UNL     1      18.066 -10.914   0.000  0.00  0.00    +0.000 C 
ATOM     32  C   UNL     1      15.483 -10.417   0.000  0.00  0.00    +0.000 C 
ENDBRANCH  22  31
ENDBRANCH   3  22
TORSDOF 5
