REMARK  Name = 
REMARK  3 active torsions:
REMARK  status: ('A' for Active; 'I' for Inactive)
REMARK    1  A    between atoms: C_6  and  C_14
REMARK    2  A    between atoms: C_10  and  C_11
REMARK    3  A    between atoms: C_19  and  C_22
REMARK                            x       y       z     vdW  Elec       q    Type
REMARK                         _______ _______ _______ _____ _____    ______ ____
ROOT
ATOM      1  C   UNL     1      11.894  -4.066   0.000  0.00  0.00    +0.000 A 
ATOM      2  C   UNL     1      11.893  -5.068   0.000  0.00  0.00    +0.000 A 
ATOM      3  C   UNL     1      12.758  -5.568   0.000  0.00  0.00    +0.000 A 
ATOM      4  C   UNL     1      12.756  -3.566   0.000  0.00  0.00    +0.000 A 
ATOM      5  C   UNL     1      13.623  -4.061   0.000  0.00  0.00    +0.000 A 
ATOM      6  C   UNL     1      13.621  -5.065   0.000  0.00  0.00    +0.000 A 
ATOM      7  O   UNL     1      14.485  -5.565   0.000  0.00  0.00    +0.000 OA
ATOM      8  C   UNL     1      15.355  -5.067   0.000  0.00  0.00    +0.000 A 
ATOM      9  C   UNL     1      15.356  -4.064   0.000  0.00  0.00    +0.000 A 
ATOM     10  C   UNL     1      14.487  -3.558   0.000  0.00  0.00    +0.000 A 
ATOM     11  O   UNL     1      14.487  -2.559   0.000  0.00  0.00    +0.000 OA
ATOM     12  O   UNL     1      12.753  -2.567   0.000  0.00  0.00    +0.000 OA
ATOM     13  O   UNL     1      11.027  -5.567   0.000  0.00  0.00    +0.000 OA
ENDROOT
BRANCH   3  18
ATOM     14  O   UNL     1      14.482  -6.579   0.000  0.00  0.00    +0.000 OA
ATOM     15  O   UNL     1      14.467  -8.582   0.000  0.00  0.00    +0.000 OA
ATOM     16  O   UNL     1      12.728  -9.566   0.000  0.00  0.00    +0.000 OA
ATOM     17  O   UNL     1      11.877  -7.061   0.000  0.00  0.00    +0.000 OA
ATOM     18  C   UNL     1      12.749  -6.564   0.000  0.00  0.00    +0.000 C 
ATOM     19  C   UNL     1      13.613  -7.071   0.000  0.00  0.00    +0.000 C 
ATOM     20  C   UNL     1      13.604  -8.075   0.000  0.00  0.00    +0.000 C 
ATOM     21  C   UNL     1      12.734  -8.567   0.000  0.00  0.00    +0.000 C 
ATOM     22  C   UNL     1      11.871  -8.059   0.000  0.00  0.00    +0.000 C 
BRANCH  22  24
ATOM     23  O   UNL     1      11.173  -9.538   0.000  0.00  0.00    +0.000 OA
ATOM     24  C   UNL     1      11.001  -8.551   0.000  0.00  0.00    +0.000 C 
ENDBRANCH  22  24
ENDBRANCH   3  18
BRANCH   8  25
ATOM     25  C   UNL     1      16.219  -5.569   0.000  0.00  0.00    +0.000 A 
ATOM     26  C   UNL     1      16.214  -6.565   0.000  0.00  0.00    +0.000 A 
ATOM     27  C   UNL     1      17.077  -7.067   0.000  0.00  0.00    +0.000 A 
ATOM     28  C   UNL     1      17.945  -6.570   0.000  0.00  0.00    +0.000 A 
ATOM     29  C   UNL     1      17.945  -5.565   0.000  0.00  0.00    +0.000 A 
ATOM     30  C   UNL     1      17.081  -5.068   0.000  0.00  0.00    +0.000 A 
ATOM     31  O   UNL     1      18.810  -7.071   0.000  0.00  0.00    +0.000 OA
ATOM     32  O   UNL     1      18.810  -5.065   0.000  0.00  0.00    +0.000 OA
ENDBRANCH   8  25
TORSDOF 3
