REMARK  Name = 
REMARK  6 active torsions:
REMARK  status: ('A' for Active; 'I' for Inactive)
REMARK    1  A    between atoms: C_6  and  O_8
REMARK    2  A    between atoms: O_8  and  C_9
REMARK    3  A    between atoms: C_9  and  C_10
REMARK    4  A    between atoms: C_14  and  O_16
REMARK    5  A    between atoms: O_16  and  C_17
REMARK    6  A    between atoms: C_27  and  C_28
REMARK                            x       y       z     vdW  Elec       q    Type
REMARK                         _______ _______ _______ _____ _____    ______ ____
ROOT
ATOM      1  C   UNL     1      13.334  -8.092   0.000  0.00  0.00    +0.000 C 
ATOM      2  C   UNL     1      12.467  -7.591   0.000  0.00  0.00    +0.000 C 
ATOM      3  C   UNL     1      12.467  -6.589   0.000  0.00  0.00    +0.000 C 
ATOM      4  C   UNL     1      13.328  -6.093   0.000  0.00  0.00    +0.000 C 
ATOM      5  C   UNL     1      14.195  -6.593   0.000  0.00  0.00    +0.000 C 
ATOM      6  O   UNL     1      14.195  -7.595   0.000  0.00  0.00    +0.000 OA
ATOM      7  O   UNL     1      13.328  -5.091   0.000  0.00  0.00    +0.000 OA
ATOM      8  O   UNL     1      11.600  -6.089   0.000  0.00  0.00    +0.000 OA
ATOM      9  O   UNL     1      11.601  -8.091   0.000  0.00  0.00    +0.000 OA
ENDROOT
BRANCH   1  10
ATOM     10  C   UNL     1      13.328  -9.081   0.000  0.00  0.00    +0.000 C 
BRANCH  10  11
ATOM     11  O   UNL     1      12.461  -9.582   0.000  0.00  0.00    +0.000 OA
BRANCH  11  17
ATOM     12  C   UNL     1      14.196 -12.586   0.000  0.00  0.00    +0.000 C 
ATOM     13  C   UNL     1      13.329 -12.085   0.000  0.00  0.00    +0.000 C 
ATOM     14  C   UNL     1      12.462 -12.585   0.000  0.00  0.00    +0.000 C 
ATOM     15  C   UNL     1      11.595 -12.085   0.000  0.00  0.00    +0.000 C 
ATOM     16  C   UNL     1      11.595 -11.083   0.000  0.00  0.00    +0.000 C 
ATOM     17  C   UNL     1      12.461 -10.583   0.000  0.00  0.00    +0.000 C 
ATOM     18  O   UNL     1      13.329 -11.084   0.000  0.00  0.00    +0.000 OA
ATOM     19  O   UNL     1      10.728 -10.582   0.000  0.00  0.00    +0.000 OA
ATOM     20  O   UNL     1      10.729 -12.585   0.000  0.00  0.00    +0.000 OA
ATOM     21  O   UNL     1      12.462 -13.587   0.000  0.00  0.00    +0.000 OA
ENDBRANCH  11  17
ENDBRANCH  10  11
ENDBRANCH   1  10
BRANCH   5  22
ATOM     22  O   UNL     1      15.061  -6.093   0.000  0.00  0.00    +0.000 OA
BRANCH  22  23
ATOM     23  C   UNL     1      15.928  -6.594   0.000  0.00  0.00    +0.000 A 
ATOM     24  C   UNL     1      15.922  -7.584   0.000  0.00  0.00    +0.000 A 
ATOM     25  O   UNL     1      15.055  -8.084   0.000  0.00  0.00    +0.000 OA
ATOM     26  C   UNL     1      16.789  -8.085   0.000  0.00  0.00    +0.000 A 
ATOM     27  C   UNL     1      16.789  -9.086   0.000  0.00  0.00    +0.000 A 
ATOM     28  C   UNL     1      17.656  -9.586   0.000  0.00  0.00    +0.000 A 
ATOM     29  C   UNL     1      18.523  -9.086   0.000  0.00  0.00    +0.000 A 
ATOM     30  C   UNL     1      18.522  -8.085   0.000  0.00  0.00    +0.000 A 
ATOM     31  C   UNL     1      17.655  -7.584   0.000  0.00  0.00    +0.000 A 
ATOM     32  O   UNL     1      17.655  -6.583   0.000  0.00  0.00    +0.000 OA
ATOM     33  C   UNL     1      16.795  -6.094   0.000  0.00  0.00    +0.000 A 
ATOM     34  O   UNL     1      19.390  -9.587   0.000  0.00  0.00    +0.000 OA
ATOM     35  O   UNL     1      15.923  -9.586   0.000  0.00  0.00    +0.000 OA
BRANCH  33  36
ATOM     36  C   UNL     1      16.794  -5.092   0.000  0.00  0.00    +0.000 A 
ATOM     37  C   UNL     1      17.661  -4.592   0.000  0.00  0.00    +0.000 A 
ATOM     38  C   UNL     1      17.661  -3.591   0.000  0.00  0.00    +0.000 A 
ATOM     39  C   UNL     1      16.794  -3.090   0.000  0.00  0.00    +0.000 A 
ATOM     40  C   UNL     1      15.927  -3.590   0.000  0.00  0.00    +0.000 A 
ATOM     41  C   UNL     1      15.927  -4.591   0.000  0.00  0.00    +0.000 A 
ATOM     42  O   UNL     1      16.794  -2.089   0.000  0.00  0.00    +0.000 OA
ENDBRANCH  33  36
ENDBRANCH  22  23
ENDBRANCH   5  22
TORSDOF 6
