REMARK  Name = 
REMARK  5 active torsions:
REMARK  status: ('A' for Active; 'I' for Inactive)
REMARK    1  A    between atoms: C_1  and  O_19
REMARK    2  A    between atoms: C_8  and  O_21
REMARK    3  A    between atoms: C_9  and  C_11
REMARK    4  A    between atoms: O_19  and  C_26
REMARK    5  A    between atoms: O_21  and  C_36
REMARK                            x       y       z     vdW  Elec       q    Type
REMARK                         _______ _______ _______ _____ _____    ______ ____
ROOT
ATOM      1  C   UNL     1      13.663  -6.068   0.000  0.00  0.00    +0.000 A 
ATOM      2  C   UNL     1      13.662  -7.071   0.000  0.00  0.00    +0.000 A 
ATOM      3  C   UNL     1      14.528  -7.571   0.000  0.00  0.00    +0.000 A 
ATOM      4  C   UNL     1      14.526  -5.567   0.000  0.00  0.00    +0.000 A 
ATOM      5  C   UNL     1      15.392  -6.063   0.000  0.00  0.00    +0.000 A 
ATOM      6  C   UNL     1      15.394  -7.066   0.000  0.00  0.00    +0.000 A 
ATOM      7  C   UNL     1      16.259  -7.563   0.000  0.00  0.00    +0.000 A 
ATOM      8  C   UNL     1      17.127  -7.062   0.000  0.00  0.00    +0.000 A 
ATOM      9  C   UNL     1      17.125  -6.059   0.000  0.00  0.00    +0.000 A 
ATOM     10  O   UNL     1      16.255  -5.557   0.000  0.00  0.00    +0.000 OA
ATOM     11  O   UNL     1      16.259  -8.563   0.000  0.00  0.00    +0.000 OA
ATOM     12  O   UNL     1      14.530  -8.571   0.000  0.00  0.00    +0.000 OA
ENDROOT
BRANCH   9  13
ATOM     13  C   UNL     1      17.988  -5.561   0.000  0.00  0.00    +0.000 A 
ATOM     14  C   UNL     1      18.858  -6.058   0.000  0.00  0.00    +0.000 A 
ATOM     15  C   UNL     1      19.719  -5.553   0.000  0.00  0.00    +0.000 A 
ATOM     16  C   UNL     1      19.713  -4.552   0.000  0.00  0.00    +0.000 A 
ATOM     17  C   UNL     1      18.838  -4.059   0.000  0.00  0.00    +0.000 A 
ATOM     18  C   UNL     1      17.980  -4.566   0.000  0.00  0.00    +0.000 A 
ATOM     19  O   UNL     1      20.575  -4.045   0.000  0.00  0.00    +0.000 OA
ENDBRANCH   9  13
BRANCH   1  20
ATOM     20  O   UNL     1      12.797  -5.568   0.000  0.00  0.00    +0.000 OA
BRANCH  20  25
ATOM     21  C   UNL     1      11.062  -3.570   0.000  0.00  0.00    +0.000 C 
ATOM     22  C   UNL     1      10.197  -4.073   0.000  0.00  0.00    +0.000 C 
ATOM     23  C   UNL     1      10.203  -5.069   0.000  0.00  0.00    +0.000 C 
ATOM     24  C   UNL     1      11.065  -5.567   0.000  0.00  0.00    +0.000 C 
ATOM     25  C   UNL     1      11.930  -5.063   0.000  0.00  0.00    +0.000 C 
ATOM     26  O   UNL     1      11.933  -4.062   0.000  0.00  0.00    +0.000 OA
ATOM     27  O   UNL     1      11.067  -6.568   0.000  0.00  0.00    +0.000 OA
ATOM     28  O   UNL     1       9.338  -5.572   0.000  0.00  0.00    +0.000 OA
ATOM     29  O   UNL     1       9.328  -3.577   0.000  0.00  0.00    +0.000 OA
ATOM     30  C   UNL     1      11.056  -2.569   0.000  0.00  0.00    +0.000 C 
ENDBRANCH  20  25
ENDBRANCH   1  20
BRANCH   8  31
ATOM     31  O   UNL     1      17.990  -7.560   0.000  0.00  0.00    +0.000 OA
BRANCH  31  36
ATOM     32  C   UNL     1      17.113 -10.056   0.000  0.00  0.00    +0.000 C 
ATOM     33  C   UNL     1      17.978 -10.559   0.000  0.00  0.00    +0.000 C 
ATOM     34  C   UNL     1      18.841 -10.061   0.000  0.00  0.00    +0.000 C 
ATOM     35  C   UNL     1      18.847  -9.066   0.000  0.00  0.00    +0.000 C 
ATOM     36  C   UNL     1      17.982  -8.562   0.000  0.00  0.00    +0.000 C 
ATOM     37  O   UNL     1      17.110  -9.055   0.000  0.00  0.00    +0.000 OA
ATOM     38  O   UNL     1      19.712  -8.572   0.000  0.00  0.00    +0.000 OA
ATOM     39  O   UNL     1      19.706 -10.565   0.000  0.00  0.00    +0.000 OA
ATOM     40  O   UNL     1      17.977 -11.560   0.000  0.00  0.00    +0.000 OA
ENDBRANCH  31  36
ENDBRANCH   8  31
TORSDOF 5
