REMARK  Name = 
REMARK  5 active torsions:
REMARK  status: ('A' for Active; 'I' for Inactive)
REMARK    1  A    between atoms: O_2  and  C_3
REMARK    2  A    between atoms: C_5  and  C_10
REMARK    3  A    between atoms: C_11  and  O_23
REMARK    4  A    between atoms: O_23  and  C_24
REMARK    5  A    between atoms: C_28  and  C_30
REMARK                            x       y       z     vdW  Elec       q    Type
REMARK                         _______ _______ _______ _____ _____    ______ ____
ROOT
ATOM      1  C   UNL     1      14.480  -4.557   0.000  0.00  0.00    +0.000 A 
ATOM      2  C   UNL     1      14.480  -5.563   0.000  0.00  0.00    +0.000 A 
ATOM      3  C   UNL     1      15.352  -6.061   0.000  0.00  0.00    +0.000 A 
ATOM      4  O   UNL     1      15.352  -7.059   0.000  0.00  0.00    +0.000 OA
ATOM      5  C   UNL     1      16.218  -5.563   0.000  0.00  0.00    +0.000 A 
ATOM      6  C   UNL     1      17.082  -6.061   0.000  0.00  0.00    +0.000 A 
ATOM      7  C   UNL     1      17.948  -5.563   0.000  0.00  0.00    +0.000 A 
ATOM      8  C   UNL     1      17.948  -4.557   0.000  0.00  0.00    +0.000 A 
ATOM      9  C   UNL     1      17.082  -4.059   0.000  0.00  0.00    +0.000 A 
ATOM     10  C   UNL     1      16.218  -4.557   0.000  0.00  0.00    +0.000 A 
ATOM     11  O   UNL     1      15.352  -4.059   0.000  0.00  0.00    +0.000 OA
ATOM     12  O   UNL     1      18.813  -4.059   0.000  0.00  0.00    +0.000 OA
ATOM     13  O   UNL     1      17.082  -7.059   0.000  0.00  0.00    +0.000 OA
ENDROOT
BRANCH   1  16
ATOM     14  C   UNL     1      11.885  -4.059   0.000  0.00  0.00    +0.000 A 
ATOM     15  C   UNL     1      12.750  -4.557   0.000  0.00  0.00    +0.000 A 
ATOM     16  C   UNL     1      13.615  -4.059   0.000  0.00  0.00    +0.000 A 
ATOM     17  C   UNL     1      13.615  -3.061   0.000  0.00  0.00    +0.000 A 
ATOM     18  C   UNL     1      12.750  -2.562   0.000  0.00  0.00    +0.000 A 
ATOM     19  C   UNL     1      11.885  -3.061   0.000  0.00  0.00    +0.000 A 
ATOM     20  O   UNL     1      11.020  -2.562   0.000  0.00  0.00    +0.000 OA
BRANCH  14  22
ATOM     21  C   UNL     1      11.020  -5.563   0.000  0.00  0.00    +0.000 C 
ATOM     22  O   UNL     1      11.020  -4.557   0.000  0.00  0.00    +0.000 OA
ENDBRANCH  14  22
ENDBRANCH   1  16
BRANCH   2  23
ATOM     23  O   UNL     1      13.615  -6.061   0.000  0.00  0.00    +0.000 OA
BRANCH  23  24
ATOM     24  C   UNL     1      13.615  -7.059   0.000  0.00  0.00    +0.000 C 
ATOM     25  C   UNL     1      12.750  -7.558   0.000  0.00  0.00    +0.000 C 
ATOM     26  C   UNL     1      12.750  -8.563   0.000  0.00  0.00    +0.000 C 
ATOM     27  C   UNL     1      13.615  -9.062   0.000  0.00  0.00    +0.000 C 
ATOM     28  C   UNL     1      14.480  -8.563   0.000  0.00  0.00    +0.000 C 
ATOM     29  O   UNL     1      14.480  -7.558   0.000  0.00  0.00    +0.000 OA
ATOM     30  O   UNL     1      13.615 -10.059   0.000  0.00  0.00    +0.000 OA
ATOM     31  O   UNL     1      11.885  -9.062   0.000  0.00  0.00    +0.000 OA
ATOM     32  O   UNL     1      11.885  -7.059   0.000  0.00  0.00    +0.000 OA
BRANCH  28  33
ATOM     33  C   UNL     1      15.352  -9.062   0.000  0.00  0.00    +0.000 C 
ATOM     34  O   UNL     1      16.218  -8.563   0.000  0.00  0.00    +0.000 OA
ENDBRANCH  28  33
ENDBRANCH  23  24
ENDBRANCH   2  23
TORSDOF 5
