REMARK  Name = 
REMARK  4 active torsions:
REMARK  status: ('A' for Active; 'I' for Inactive)
REMARK    1  A    between atoms: C_1  and  O_18
REMARK    2  A    between atoms: C_9  and  C_11
REMARK    3  A    between atoms: O_18  and  C_26
REMARK    4  A    between atoms: C_22  and  C_31
REMARK                            x       y       z     vdW  Elec       q    Type
REMARK                         _______ _______ _______ _____ _____    ______ ____
ROOT
ATOM      1  C   UNL     1      13.658  -6.561   0.000  0.00  0.00    +0.000 A 
ATOM      2  C   UNL     1      13.656  -7.563   0.000  0.00  0.00    +0.000 A 
ATOM      3  C   UNL     1      14.523  -8.064   0.000  0.00  0.00    +0.000 A 
ATOM      4  C   UNL     1      14.521  -6.061   0.000  0.00  0.00    +0.000 A 
ATOM      5  C   UNL     1      15.387  -6.556   0.000  0.00  0.00    +0.000 A 
ATOM      6  C   UNL     1      15.386  -7.560   0.000  0.00  0.00    +0.000 A 
ATOM      7  C   UNL     1      16.250  -8.061   0.000  0.00  0.00    +0.000 C 
ATOM      8  C   UNL     1      17.121  -7.563   0.000  0.00  0.00    +0.000 C 
ATOM      9  C   UNL     1      17.122  -6.559   0.000  0.00  0.00    +0.000 C 
ATOM     10  O   UNL     1      16.253  -6.053   0.000  0.00  0.00    +0.000 OA
ATOM     11  O   UNL     1      14.525  -9.063   0.000  0.00  0.00    +0.000 OA
ATOM     12  O   UNL     1      16.247  -9.061   0.000  0.00  0.00    +0.000 OA
ATOM     13  O   UNL     1      17.985  -8.065   0.000  0.00  0.00    +0.000 OA
ENDROOT
BRANCH   9  14
ATOM     14  C   UNL     1      17.987  -6.064   0.000  0.00  0.00    +0.000 A 
ATOM     15  C   UNL     1      18.854  -6.563   0.000  0.00  0.00    +0.000 A 
ATOM     16  C   UNL     1      19.717  -6.061   0.000  0.00  0.00    +0.000 A 
ATOM     17  C   UNL     1      19.714  -5.062   0.000  0.00  0.00    +0.000 A 
ATOM     18  C   UNL     1      18.841  -4.566   0.000  0.00  0.00    +0.000 A 
ATOM     19  C   UNL     1      17.982  -5.070   0.000  0.00  0.00    +0.000 A 
ATOM     20  O   UNL     1      20.577  -4.558   0.000  0.00  0.00    +0.000 OA
ENDBRANCH   9  14
BRANCH   1  21
ATOM     21  O   UNL     1      12.792  -6.061   0.000  0.00  0.00    +0.000 OA
BRANCH  21  26
ATOM     22  C   UNL     1      11.074  -4.059   0.000  0.00  0.00    +0.000 C 
ATOM     23  C   UNL     1      10.204  -4.553   0.000  0.00  0.00    +0.000 C 
ATOM     24  C   UNL     1      10.200  -5.549   0.000  0.00  0.00    +0.000 C 
ATOM     25  C   UNL     1      11.057  -6.056   0.000  0.00  0.00    +0.000 C 
ATOM     26  C   UNL     1      11.927  -5.561   0.000  0.00  0.00    +0.000 C 
ATOM     27  O   UNL     1      11.940  -4.561   0.000  0.00  0.00    +0.000 OA
ATOM     28  O   UNL     1       9.344  -4.042   0.000  0.00  0.00    +0.000 OA
ATOM     29  O   UNL     1       9.324  -6.035   0.000  0.00  0.00    +0.000 OA
ATOM     30  O   UNL     1      11.048  -7.056   0.000  0.00  0.00    +0.000 OA
BRANCH  22  31
ATOM     31  C   UNL     1      11.079  -3.058   0.000  0.00  0.00    +0.000 C 
ATOM     32  O   UNL     1      11.948  -2.561   0.000  0.00  0.00    +0.000 OA
ENDBRANCH  22  31
ENDBRANCH  21  26
ENDBRANCH   1  21
TORSDOF 4
