REMARK  Name = 
REMARK  3 active torsions:
REMARK  status: ('A' for Active; 'I' for Inactive)
REMARK    1  A    between atoms: C_13  and  C_16
REMARK    2  A    between atoms: C_15  and  C_17
REMARK    3  A    between atoms: C_24  and  C_26
REMARK                            x       y       z     vdW  Elec       q    Type
REMARK                         _______ _______ _______ _____ _____    ______ ____
ROOT
ATOM      1  O   UNL     1      13.962  -7.046   0.000  0.00  0.00    +0.000 OA
ATOM      2  O   UNL     1      12.241  -4.065   0.000  0.00  0.00    +0.000 OA
ATOM      3  O   UNL     1      15.711  -4.030   0.000  0.00  0.00    +0.000 OA
ATOM      4  O   UNL     1      15.700  -7.081   0.000  0.00  0.00    +0.000 OA
ATOM      5  C   UNL     1      13.101  -5.556   0.000  0.00  0.00    +0.000 A 
ATOM      6  C   UNL     1      13.962  -6.053   0.000  0.00  0.00    +0.000 A 
ATOM      7  C   UNL     1      13.101  -4.562   0.000  0.00  0.00    +0.000 A 
ATOM      8  C   UNL     1      14.823  -5.556   0.000  0.00  0.00    +0.000 A 
ATOM      9  C   UNL     1      13.962  -4.065   0.000  0.00  0.00    +0.000 A 
ATOM     10  C   UNL     1      14.823  -4.562   0.000  0.00  0.00    +0.000 A 
ATOM     11  C   UNL     1      15.711  -6.087   0.000  0.00  0.00    +0.000 A 
ATOM     12  C   UNL     1      16.612  -4.541   0.000  0.00  0.00    +0.000 A 
ATOM     13  C   UNL     1      16.612  -5.576   0.000  0.00  0.00    +0.000 A 
ENDROOT
BRANCH   5  20
ATOM     14  O   UNL     1      12.241  -7.046   0.000  0.00  0.00    +0.000 OA
ATOM     15  O   UNL     1      11.380  -4.562   0.000  0.00  0.00    +0.000 OA
ATOM     16  O   UNL     1       9.658  -5.556   0.000  0.00  0.00    +0.000 OA
ATOM     17  O   UNL     1       9.658  -7.543   0.000  0.00  0.00    +0.000 OA
ATOM     18  C   UNL     1      11.380  -5.556   0.000  0.00  0.00    +0.000 C 
ATOM     19  C   UNL     1      10.519  -6.053   0.000  0.00  0.00    +0.000 C 
ATOM     20  C   UNL     1      12.241  -6.053   0.000  0.00  0.00    +0.000 C 
ATOM     21  C   UNL     1      10.519  -7.046   0.000  0.00  0.00    +0.000 C 
ATOM     22  C   UNL     1      11.380  -7.543   0.000  0.00  0.00    +0.000 C 
BRANCH  22  24
ATOM     23  O   UNL     1      10.519  -9.034   0.000  0.00  0.00    +0.000 OA
ATOM     24  C   UNL     1      11.380  -8.537   0.000  0.00  0.00    +0.000 C 
ENDBRANCH  22  24
ENDBRANCH   5  20
BRANCH  12  26
ATOM     25  O   UNL     1      20.047  -2.540   0.000  0.00  0.00    +0.000 OA
ATOM     26  C   UNL     1      17.471  -4.041   0.000  0.00  0.00    +0.000 A 
ATOM     27  C   UNL     1      17.467  -3.047   0.000  0.00  0.00    +0.000 A 
ATOM     28  C   UNL     1      18.334  -4.534   0.000  0.00  0.00    +0.000 A 
ATOM     29  C   UNL     1      18.326  -2.546   0.000  0.00  0.00    +0.000 A 
ATOM     30  C   UNL     1      19.192  -4.034   0.000  0.00  0.00    +0.000 A 
ATOM     31  C   UNL     1      19.189  -3.040   0.000  0.00  0.00    +0.000 A 
ENDBRANCH  12  26
TORSDOF 3
