REMARK  Name = 
REMARK  4 active torsions:
REMARK  status: ('A' for Active; 'I' for Inactive)
REMARK    1  A    between atoms: C_15  and  C_21
REMARK    2  A    between atoms: C_19  and  C_30
REMARK    3  A    between atoms: C_20  and  C_23
REMARK    4  A    between atoms: C_33  and  C_35
REMARK                            x       y       z     vdW  Elec       q    Type
REMARK                         _______ _______ _______ _____ _____    ______ ____
ROOT
ATOM      1  O   UNL     1      16.164  -7.059   0.000  0.00  0.00    +0.000 OA
ATOM      2  O   UNL     1      12.688  -7.024   0.000  0.00  0.00    +0.000 OA
ATOM      3  O   UNL     1      14.412  -4.038   0.000  0.00  0.00    +0.000 OA
ATOM      4  O   UNL     1      16.152  -4.004   0.000  0.00  0.00    +0.000 OA
ATOM      5  C   UNL     1      13.550  -5.531   0.000  0.00  0.00    +0.000 A 
ATOM      6  C   UNL     1      14.412  -7.024   0.000  0.00  0.00    +0.000 A 
ATOM      7  C   UNL     1      13.550  -6.526   0.000  0.00  0.00    +0.000 A 
ATOM      8  C   UNL     1      14.412  -5.033   0.000  0.00  0.00    +0.000 A 
ATOM      9  C   UNL     1      15.274  -6.526   0.000  0.00  0.00    +0.000 A 
ATOM     10  C   UNL     1      15.274  -5.531   0.000  0.00  0.00    +0.000 A 
ATOM     11  C   UNL     1      16.164  -4.999   0.000  0.00  0.00    +0.000 A 
ATOM     12  C   UNL     1      17.065  -6.547   0.000  0.00  0.00    +0.000 A 
ATOM     13  C   UNL     1      17.065  -5.510   0.000  0.00  0.00    +0.000 A 
ENDROOT
BRANCH   5  18
ATOM     14  O   UNL     1      11.826  -5.531   0.000  0.00  0.00    +0.000 OA
ATOM     15  O   UNL     1      13.550  -3.541   0.000  0.00  0.00    +0.000 OA
ATOM     16  O   UNL     1      11.826  -2.545   0.000  0.00  0.00    +0.000 OA
ATOM     17  O   UNL     1      10.102  -3.541   0.000  0.00  0.00    +0.000 OA
ATOM     18  C   UNL     1      12.688  -5.033   0.000  0.00  0.00    +0.000 C 
ATOM     19  C   UNL     1      12.688  -4.038   0.000  0.00  0.00    +0.000 C 
ATOM     20  C   UNL     1      11.826  -3.541   0.000  0.00  0.00    +0.000 C 
ATOM     21  C   UNL     1      10.964  -4.038   0.000  0.00  0.00    +0.000 C 
ATOM     22  C   UNL     1      10.964  -5.033   0.000  0.00  0.00    +0.000 C 
BRANCH  22  24
ATOM     23  O   UNL     1       9.240  -5.033   0.000  0.00  0.00    +0.000 OA
ATOM     24  C   UNL     1      10.102  -5.531   0.000  0.00  0.00    +0.000 C 
ENDBRANCH  22  24
ENDBRANCH   5  18
BRANCH   6  29
ATOM     25  O   UNL     1      15.274  -8.517   0.000  0.00  0.00    +0.000 OA
ATOM     26  O   UNL     1      12.688  -8.019   0.000  0.00  0.00    +0.000 OA
ATOM     27  O   UNL     1      12.688 -10.010   0.000  0.00  0.00    +0.000 OA
ATOM     28  O   UNL     1      14.412 -11.005   0.000  0.00  0.00    +0.000 OA
ATOM     29  C   UNL     1      14.412  -8.019   0.000  0.00  0.00    +0.000 C 
ATOM     30  C   UNL     1      13.550  -8.517   0.000  0.00  0.00    +0.000 C 
ATOM     31  C   UNL     1      13.550  -9.512   0.000  0.00  0.00    +0.000 C 
ATOM     32  C   UNL     1      14.412 -10.010   0.000  0.00  0.00    +0.000 C 
ATOM     33  C   UNL     1      15.274  -9.512   0.000  0.00  0.00    +0.000 C 
ENDBRANCH   6  29
BRANCH  12  35
ATOM     34  O   UNL     1      20.505  -8.551   0.000  0.00  0.00    +0.000 OA
ATOM     35  C   UNL     1      17.925  -7.048   0.000  0.00  0.00    +0.000 A 
ATOM     36  C   UNL     1      18.789  -6.554   0.000  0.00  0.00    +0.000 A 
ATOM     37  C   UNL     1      17.922  -8.043   0.000  0.00  0.00    +0.000 A 
ATOM     38  C   UNL     1      19.649  -7.055   0.000  0.00  0.00    +0.000 A 
ATOM     39  C   UNL     1      18.782  -8.544   0.000  0.00  0.00    +0.000 A 
ATOM     40  C   UNL     1      19.645  -8.050   0.000  0.00  0.00    +0.000 A 
ENDBRANCH  12  35
TORSDOF 4
