REMARK  Name = 
REMARK  3 active torsions:
REMARK  status: ('A' for Active; 'I' for Inactive)
REMARK    1  A    between atoms: C_8  and  O_20
REMARK    2  A    between atoms: C_9  and  C_11
REMARK    3  A    between atoms: C_13  and  O_22
REMARK                            x       y       z     vdW  Elec       q    Type
REMARK                         _______ _______ _______ _____ _____    ______ ____
ROOT
ATOM      1  C   UNL     1      11.629  -4.628   0.000  0.00  0.00    +0.000 A 
ATOM      2  C   UNL     1      11.629  -5.622   0.000  0.00  0.00    +0.000 A 
ATOM      3  C   UNL     1      12.499  -6.149   0.000  0.00  0.00    +0.000 A 
ATOM      4  C   UNL     1      12.499  -4.100   0.000  0.00  0.00    +0.000 A 
ATOM      5  C   UNL     1      13.368  -4.628   0.000  0.00  0.00    +0.000 A 
ATOM      6  C   UNL     1      13.368  -5.622   0.000  0.00  0.00    +0.000 A 
ATOM      7  C   UNL     1      14.237  -6.118   0.000  0.00  0.00    +0.000 A 
ATOM      8  C   UNL     1      15.107  -5.622   0.000  0.00  0.00    +0.000 A 
ATOM      9  C   UNL     1      15.107  -4.628   0.000  0.00  0.00    +0.000 A 
ATOM     10  O   UNL     1      14.237  -4.100   0.000  0.00  0.00    +0.000 OA
ATOM     11  O   UNL     1      14.237  -7.143   0.000  0.00  0.00    +0.000 OA
ATOM     12  O   UNL     1      12.499  -7.143   0.000  0.00  0.00    +0.000 OA
ATOM     13  O   UNL     1      10.729  -4.348   0.000  0.00  0.00    +0.000 OA
ATOM     14  C   UNL     1      10.170  -5.125   0.000  0.00  0.00    +0.000 C 
ATOM     15  O   UNL     1      10.729  -5.870   0.000  0.00  0.00    +0.000 OA
ENDROOT
BRANCH   9  16
ATOM     16  C   UNL     1      16.007  -4.131   0.000  0.00  0.00    +0.000 A 
ATOM     17  C   UNL     1      16.845  -4.628   0.000  0.00  0.00    +0.000 A 
ATOM     18  C   UNL     1      17.746  -4.131   0.000  0.00  0.00    +0.000 A 
ATOM     19  C   UNL     1      17.746  -3.107   0.000  0.00  0.00    +0.000 A 
ATOM     20  C   UNL     1      16.845  -2.610   0.000  0.00  0.00    +0.000 A 
ATOM     21  C   UNL     1      16.007  -3.107   0.000  0.00  0.00    +0.000 A 
ATOM     22  O   UNL     1      18.615  -2.610   0.000  0.00  0.00    +0.000 OA
BRANCH  18  23
ATOM     23  O   UNL     1      18.615  -4.628   0.000  0.00  0.00    +0.000 OA
ATOM     24  C   UNL     1      19.485  -4.100   0.000  0.00  0.00    +0.000 C 
ENDBRANCH  18  23
ENDBRANCH   9  16
BRANCH   8  25
ATOM     25  O   UNL     1      16.007  -6.118   0.000  0.00  0.00    +0.000 OA
ATOM     26  C   UNL     1      16.877  -5.622   0.000  0.00  0.00    +0.000 C 
ENDBRANCH   8  25
TORSDOF 3
