REMARK  Name = 
REMARK  12 active torsions:
REMARK  status: ('A' for Active; 'I' for Inactive)
REMARK    1  A    between atoms: C_5  and  O_21
REMARK    2  A    between atoms: C_9  and  C_11
REMARK    3  A    between atoms: C_14  and  O_17
REMARK    4  A    between atoms: O_21  and  C_25
REMARK    5  A    between atoms: C_24  and  O_30
REMARK    6  A    between atoms: C_27  and  C_31
REMARK    7  A    between atoms: O_30  and  C_37
REMARK    8  A    between atoms: C_31  and  O_32
REMARK    9  A    between atoms: O_32  and  C_49
REMARK   10  A    between atoms: C_35  and  O_41
REMARK   11  A    between atoms: O_41  and  C_43
REMARK   12  A    between atoms: C_51  and  C_52
REMARK                            x       y       z     vdW  Elec       q    Type
REMARK                         _______ _______ _______ _____ _____    ______ ____
ROOT
ATOM      1  C   UNL     1      11.971  -4.365   0.000  0.00  0.00    +0.000 C 
ATOM      2  C   UNL     1      12.512  -5.302   0.000  0.00  0.00    +0.000 C 
ATOM      3  C   UNL     1      13.559  -5.028   0.000  0.00  0.00    +0.000 C 
ATOM      4  C   UNL     1      14.599  -5.325   0.000  0.00  0.00    +0.000 C 
ATOM      5  O   UNL     1      14.059  -4.388   0.000  0.00  0.00    +0.000 OA
ATOM      6  C   UNL     1      13.012  -4.662   0.000  0.00  0.00    +0.000 C 
ATOM      7  O   UNL     1      11.403  -4.712   0.000  0.00  0.00    +0.000 OA
ATOM      8  O   UNL     1      11.693  -5.264   0.000  0.00  0.00    +0.000 OA
ENDROOT
BRANCH   4   9
ATOM      9  O   UNL     1      15.432  -5.150   0.000  0.00  0.00    +0.000 OA
BRANCH   9  14
ATOM     10  C   UNL     1      17.216  -7.267   0.000  0.00  0.00    +0.000 A 
ATOM     11  C   UNL     1      18.158  -6.723   0.000  0.00  0.00    +0.000 A 
ATOM     12  C   UNL     1      18.158  -5.636   0.000  0.00  0.00    +0.000 A 
ATOM     13  C   UNL     1      17.216  -5.093   0.000  0.00  0.00    +0.000 A 
ATOM     14  C   UNL     1      16.275  -5.636   0.000  0.00  0.00    +0.000 A 
ATOM     15  C   UNL     1      16.275  -6.723   0.000  0.00  0.00    +0.000 A 
ATOM     16  C   UNL     1      19.100  -7.267   0.000  0.00  0.00    +0.000 A 
ATOM     17  C   UNL     1      20.041  -6.723   0.000  0.00  0.00    +0.000 A 
ATOM     18  C   UNL     1      20.041  -5.636   0.000  0.00  0.00    +0.000 A 
ATOM     19  O   UNL     1      19.100  -5.093   0.000  0.00  0.00    +0.000 OA
ATOM     20  O   UNL     1      19.100  -8.185   0.000  0.00  0.00    +0.000 OA
ATOM     21  O   UNL     1      17.216  -8.212   0.000  0.00  0.00    +0.000 OA
BRANCH  18  22
ATOM     22  C   UNL     1      21.006  -5.079   0.000  0.00  0.00    +0.000 A 
ATOM     23  C   UNL     1      21.935  -5.616   0.000  0.00  0.00    +0.000 A 
ATOM     24  C   UNL     1      22.865  -5.079   0.000  0.00  0.00    +0.000 A 
ATOM     25  C   UNL     1      22.865  -4.006   0.000  0.00  0.00    +0.000 A 
ATOM     26  C   UNL     1      21.935  -3.469   0.000  0.00  0.00    +0.000 A 
ATOM     27  C   UNL     1      21.006  -4.006   0.000  0.00  0.00    +0.000 A 
BRANCH  25  28
ATOM     28  O   UNL     1      23.635  -3.562   0.000  0.00  0.00    +0.000 OA
ATOM     29  C   UNL     1      24.558  -3.563   0.000  0.00  0.00    +0.000 C 
ENDBRANCH  25  28
ENDBRANCH  18  22
ENDBRANCH   9  14
ENDBRANCH   4   9
BRANCH   3  30
ATOM     30  O   UNL     1      14.274  -5.857   0.000  0.00  0.00    +0.000 OA
BRANCH  30  35
ATOM     31  C   UNL     1      12.398  -6.841   0.000  0.00  0.00    +0.000 C 
ATOM     32  C   UNL     1      11.883  -7.792   0.000  0.00  0.00    +0.000 C 
ATOM     33  C   UNL     1      12.914  -7.467   0.000  0.00  0.00    +0.000 C 
ATOM     34  C   UNL     1      13.968  -7.712   0.000  0.00  0.00    +0.000 C 
ATOM     35  C   UNL     1      14.483  -6.761   0.000  0.00  0.00    +0.000 C 
ATOM     36  O   UNL     1      13.451  -7.086   0.000  0.00  0.00    +0.000 OA
ATOM     37  C   UNL     1      11.461  -6.944   0.000  0.00  0.00    +0.000 C 
ATOM     38  O   UNL     1      11.131  -7.386   0.000  0.00  0.00    +0.000 OA
ATOM     39  O   UNL     1      14.004  -8.466   0.000  0.00  0.00    +0.000 OA
BRANCH  33  40
ATOM     40  O   UNL     1      12.114  -8.311   0.000  0.00  0.00    +0.000 OA
BRANCH  40  41
ATOM     41  C   UNL     1      12.674  -9.061   0.000  0.00  0.00    +0.000 C 
ATOM     42  C   UNL     1      12.255  -9.779   0.000  0.00  0.00    +0.000 C 
ATOM     43  O   UNL     1      13.465  -9.061   0.000  0.00  0.00    +0.000 OA
ENDBRANCH  40  41
ENDBRANCH  33  40
ENDBRANCH  30  35
ENDBRANCH   3  30
BRANCH   6  44
ATOM     44  C   UNL     1      12.661  -4.062   0.000  0.00  0.00    +0.000 C 
BRANCH  44  45
ATOM     45  O   UNL     1      11.820  -4.015   0.000  0.00  0.00    +0.000 OA
BRANCH  45  49
ATOM     46  C   UNL     1       8.194  -3.153   0.000  0.00  0.00    +0.000 C 
ATOM     47  C   UNL     1       8.735  -4.090   0.000  0.00  0.00    +0.000 C 
ATOM     48  C   UNL     1       9.782  -3.816   0.000  0.00  0.00    +0.000 C 
ATOM     49  C   UNL     1      10.822  -4.114   0.000  0.00  0.00    +0.000 C 
ATOM     50  O   UNL     1      10.281  -3.177   0.000  0.00  0.00    +0.000 OA
ATOM     51  C   UNL     1       9.234  -3.451   0.000  0.00  0.00    +0.000 C 
ATOM     52  O   UNL     1       7.567  -3.430   0.000  0.00  0.00    +0.000 OA
ATOM     53  O   UNL     1       7.919  -3.901   0.000  0.00  0.00    +0.000 OA
ATOM     54  O   UNL     1      10.357  -4.635   0.000  0.00  0.00    +0.000 OA
BRANCH  51  55
ATOM     55  C   UNL     1       8.779  -2.815   0.000  0.00  0.00    +0.000 C 
ATOM     56  O   UNL     1       7.897  -2.773   0.000  0.00  0.00    +0.000 OA
ENDBRANCH  51  55
ENDBRANCH  45  49
ENDBRANCH  44  45
ENDBRANCH   6  44
TORSDOF 12
