REMARK  Name = 
REMARK  8 active torsions:
REMARK  status: ('A' for Active; 'I' for Inactive)
REMARK    1  A    between atoms: C_6  and  C_9
REMARK    2  A    between atoms: C_10  and  C_11
REMARK    3  A    between atoms: C_11  and  C_12
REMARK    4  A    between atoms: C_17  and  O_20
REMARK    5  A    between atoms: O_20  and  C_26
REMARK    6  A    between atoms: O_24  and  C_29
REMARK    7  A    between atoms: O_24  and  C_40
REMARK    8  A    between atoms: C_30  and  C_31
REMARK                            x       y       z     vdW  Elec       q    Type
REMARK                         _______ _______ _______ _____ _____    ______ ____
ROOT
ATOM      1  O   UNL     1      11.216 -20.542   0.000  0.00  0.00    +0.000 OA
ENDROOT
BRANCH   1   5
ATOM      2  O   UNL     1       9.486 -20.459   0.000  0.00  0.00    +0.000 OA
ATOM      3  O   UNL     1      11.121 -22.540   0.000  0.00  0.00    +0.000 OA
ATOM      4  O   UNL     1       9.343 -23.456   0.000  0.00  0.00    +0.000 OA
ATOM      5  C   UNL     1      10.327 -21.000   0.000  0.00  0.00    +0.000 C 
ATOM      6  C   UNL     1      10.280 -21.999   0.000  0.00  0.00    +0.000 C 
ATOM      7  C   UNL     1       9.391 -22.457   0.000  0.00  0.00    +0.000 C 
ATOM      8  C   UNL     1       8.550 -21.916   0.000  0.00  0.00    +0.000 C 
ATOM      9  C   UNL     1       8.597 -20.917   0.000  0.00  0.00    +0.000 C 
BRANCH   9  11
ATOM     10  O   UNL     1       6.867 -20.835   0.000  0.00  0.00    +0.000 OA
ATOM     11  C   UNL     1       7.756 -20.376   0.000  0.00  0.00    +0.000 C 
ENDBRANCH   9  11
BRANCH   8  12
ATOM     12  O   UNL     1       7.661 -22.374   0.000  0.00  0.00    +0.000 OA
BRANCH  12  21
ATOM     13  O   UNL     1       4.219 -24.413   0.000  0.00  0.00    +0.000 OA
ATOM     14  O   UNL     1       5.929 -22.393   0.000  0.00  0.00    +0.000 OA
ATOM     15  O   UNL     1       5.962 -25.393   0.000  0.00  0.00    +0.000 OA
ATOM     16  O   UNL     1       7.683 -24.374   0.000  0.00  0.00    +0.000 OA
ATOM     17  C   UNL     1       5.079 -23.903   0.000  0.00  0.00    +0.000 C 
ATOM     18  C   UNL     1       5.951 -24.393   0.000  0.00  0.00    +0.000 C 
ATOM     19  C   UNL     1       5.068 -22.903   0.000  0.00  0.00    +0.000 C 
ATOM     20  C   UNL     1       6.811 -23.884   0.000  0.00  0.00    +0.000 C 
ATOM     21  C   UNL     1       6.800 -22.884   0.000  0.00  0.00    +0.000 C 
ENDBRANCH  12  21
ENDBRANCH   8  12
ENDBRANCH   1   5
BRANCH   1  26
ATOM     22  C   UNL     1      13.814 -22.042   0.000  0.00  0.00    +0.000 A 
ATOM     23  C   UNL     1      13.814 -21.042   0.000  0.00  0.00    +0.000 A 
ATOM     24  C   UNL     1      12.948 -20.542   0.000  0.00  0.00    +0.000 A 
ATOM     25  C   UNL     1      12.948 -22.542   0.000  0.00  0.00    +0.000 A 
ATOM     26  C   UNL     1      12.082 -21.042   0.000  0.00  0.00    +0.000 A 
ATOM     27  C   UNL     1      12.082 -22.042   0.000  0.00  0.00    +0.000 A 
ATOM     28  O   UNL     1      12.948 -23.542   0.000  0.00  0.00    +0.000 OA
BRANCH  22  29
ATOM     29  C   UNL     1      14.680 -22.542   0.000  0.00  0.00    +0.000 C 
ATOM     30  O   UNL     1      14.680 -23.542   0.000  0.00  0.00    +0.000 OA
BRANCH  29  32
ATOM     31  C   UNL     1      16.412 -22.542   0.000  0.00  0.00    +0.000 C 
ATOM     32  C   UNL     1      15.546 -22.042   0.000  0.00  0.00    +0.000 C 
BRANCH  31  38
ATOM     33  C   UNL     1      19.010 -21.042   0.000  0.00  0.00    +0.000 A 
ATOM     34  C   UNL     1      19.010 -22.042   0.000  0.00  0.00    +0.000 A 
ATOM     35  C   UNL     1      18.144 -20.542   0.000  0.00  0.00    +0.000 A 
ATOM     36  C   UNL     1      18.144 -22.542   0.000  0.00  0.00    +0.000 A 
ATOM     37  C   UNL     1      17.278 -21.042   0.000  0.00  0.00    +0.000 A 
ATOM     38  C   UNL     1      17.278 -22.042   0.000  0.00  0.00    +0.000 A 
ATOM     39  O   UNL     1      19.876 -20.542   0.000  0.00  0.00    +0.000 OA
ATOM     40  O   UNL     1      19.876 -22.542   0.000  0.00  0.00    +0.000 OA
ENDBRANCH  31  38
ENDBRANCH  29  32
ENDBRANCH  22  29
ENDBRANCH   1  26
TORSDOF 8
