REMARK  Name = 
REMARK  10 active torsions:
REMARK  status: ('A' for Active; 'I' for Inactive)
REMARK    1  A    between atoms: C_5  and  O_21
REMARK    2  A    between atoms: C_9  and  C_11
REMARK    3  A    between atoms: C_14  and  O_17
REMARK    4  A    between atoms: O_21  and  C_25
REMARK    5  A    between atoms: C_24  and  O_30
REMARK    6  A    between atoms: C_27  and  C_31
REMARK    7  A    between atoms: O_30  and  C_46
REMARK    8  A    between atoms: C_37  and  O_51
REMARK    9  A    between atoms: C_45  and  O_51
REMARK   10  A    between atoms: C_48  and  C_52
REMARK                            x       y       z     vdW  Elec       q    Type
REMARK                         _______ _______ _______ _____ _____    ______ ____
ROOT
ATOM      1  C   UNL     1      14.247  -3.412   0.000  0.00  0.00    +0.000 C 
ATOM      2  C   UNL     1      13.261  -3.981   0.000  0.00  0.00    +0.000 C 
ATOM      3  C   UNL     1      13.549  -5.082   0.000  0.00  0.00    +0.000 C 
ATOM      4  C   UNL     1      13.236  -6.177   0.000  0.00  0.00    +0.000 C 
ATOM      5  O   UNL     1      14.222  -5.608   0.000  0.00  0.00    +0.000 OA
ATOM      6  C   UNL     1      13.934  -4.507   0.000  0.00  0.00    +0.000 C 
ATOM      7  O   UNL     1      13.781  -2.638   0.000  0.00  0.00    +0.000 OA
ATOM      8  O   UNL     1      13.260  -3.261   0.000  0.00  0.00    +0.000 OA
ENDROOT
BRANCH   6   9
ATOM      9  C   UNL     1      14.527  -4.050   0.000  0.00  0.00    +0.000 C 
ATOM     10  O   UNL     1      14.517  -3.120   0.000  0.00  0.00    +0.000 OA
ENDBRANCH   6   9
BRANCH   4  11
ATOM     11  O   UNL     1      13.404  -7.150   0.000  0.00  0.00    +0.000 OA
BRANCH  11  16
ATOM     12  C   UNL     1      15.093  -9.155   0.000  0.00  0.00    +0.000 A 
ATOM     13  C   UNL     1      15.985  -8.640   0.000  0.00  0.00    +0.000 A 
ATOM     14  C   UNL     1      15.985  -7.611   0.000  0.00  0.00    +0.000 A 
ATOM     15  C   UNL     1      15.093  -7.096   0.000  0.00  0.00    +0.000 A 
ATOM     16  C   UNL     1      14.201  -7.611   0.000  0.00  0.00    +0.000 A 
ATOM     17  C   UNL     1      14.201  -8.640   0.000  0.00  0.00    +0.000 A 
ATOM     18  C   UNL     1      16.877  -9.155   0.000  0.00  0.00    +0.000 A 
ATOM     19  C   UNL     1      17.768  -8.640   0.000  0.00  0.00    +0.000 A 
ATOM     20  C   UNL     1      17.768  -7.611   0.000  0.00  0.00    +0.000 A 
ATOM     21  O   UNL     1      16.877  -7.096   0.000  0.00  0.00    +0.000 OA
ATOM     22  O   UNL     1      16.877 -10.024   0.000  0.00  0.00    +0.000 OA
ATOM     23  O   UNL     1      15.093 -10.050   0.000  0.00  0.00    +0.000 OA
BRANCH  20  24
ATOM     24  C   UNL     1      18.682  -7.084   0.000  0.00  0.00    +0.000 A 
ATOM     25  C   UNL     1      19.562  -7.592   0.000  0.00  0.00    +0.000 A 
ATOM     26  C   UNL     1      20.442  -7.084   0.000  0.00  0.00    +0.000 A 
ATOM     27  C   UNL     1      20.442  -6.067   0.000  0.00  0.00    +0.000 A 
ATOM     28  C   UNL     1      19.562  -5.559   0.000  0.00  0.00    +0.000 A 
ATOM     29  C   UNL     1      18.682  -6.067   0.000  0.00  0.00    +0.000 A 
BRANCH  27  30
ATOM     30  O   UNL     1      21.171  -5.646   0.000  0.00  0.00    +0.000 OA
ATOM     31  C   UNL     1      22.198  -5.646   0.000  0.00  0.00    +0.000 C 
ENDBRANCH  27  30
ENDBRANCH  20  24
ENDBRANCH  11  16
ENDBRANCH   4  11
BRANCH   3  32
ATOM     32  O   UNL     1      12.721  -5.607   0.000  0.00  0.00    +0.000 OA
BRANCH  32  36
ATOM     33  C   UNL     1       9.149  -4.831   0.000  0.00  0.00    +0.000 C 
ATOM     34  C   UNL     1       9.718  -5.817   0.000  0.00  0.00    +0.000 C 
ATOM     35  C   UNL     1      10.819  -5.528   0.000  0.00  0.00    +0.000 C 
ATOM     36  C   UNL     1      11.914  -5.841   0.000  0.00  0.00    +0.000 C 
ATOM     37  O   UNL     1      11.345  -4.855   0.000  0.00  0.00    +0.000 OA
ATOM     38  C   UNL     1      10.244  -5.143   0.000  0.00  0.00    +0.000 C 
ATOM     39  O   UNL     1       8.580  -5.145   0.000  0.00  0.00    +0.000 OA
ATOM     40  O   UNL     1       8.989  -5.722   0.000  0.00  0.00    +0.000 OA
BRANCH  38  41
ATOM     41  C   UNL     1       9.789  -4.526   0.000  0.00  0.00    +0.000 C 
ATOM     42  O   UNL     1       8.989  -4.512   0.000  0.00  0.00    +0.000 OA
ENDBRANCH  38  41
BRANCH  35  43
ATOM     43  O   UNL     1      11.422  -6.382   0.000  0.00  0.00    +0.000 OA
BRANCH  43  48
ATOM     44  C   UNL     1       9.495  -7.355   0.000  0.00  0.00    +0.000 C 
ATOM     45  C   UNL     1       8.953  -8.356   0.000  0.00  0.00    +0.000 C 
ATOM     46  C   UNL     1      10.039  -8.013   0.000  0.00  0.00    +0.000 C 
ATOM     47  C   UNL     1      11.148  -8.271   0.000  0.00  0.00    +0.000 C 
ATOM     48  C   UNL     1      11.690  -7.270   0.000  0.00  0.00    +0.000 C 
ATOM     49  O   UNL     1      10.604  -7.613   0.000  0.00  0.00    +0.000 OA
ATOM     50  C   UNL     1       8.609  -7.447   0.000  0.00  0.00    +0.000 C 
ATOM     51  O   UNL     1       8.370  -8.007   0.000  0.00  0.00    +0.000 OA
ATOM     52  O   UNL     1       9.416  -8.864   0.000  0.00  0.00    +0.000 OA
ATOM     53  O   UNL     1      11.185  -9.084   0.000  0.00  0.00    +0.000 OA
ENDBRANCH  43  48
ENDBRANCH  35  43
ENDBRANCH  32  36
ENDBRANCH   3  32
TORSDOF 10
