REMARK  Name = 
REMARK  12 active torsions:
REMARK  status: ('A' for Active; 'I' for Inactive)
REMARK    1  A    between atoms: O_1  and  C_19
REMARK    2  A    between atoms: O_1  and  C_22
REMARK    3  A    between atoms: O_7  and  C_25
REMARK    4  A    between atoms: O_7  and  C_35
REMARK    5  A    between atoms: O_14  and  C_34
REMARK    6  A    between atoms: O_14  and  C_39
REMARK    7  A    between atoms: C_20  and  C_28
REMARK    8  A    between atoms: C_26  and  C_29
REMARK    9  A    between atoms: C_32  and  C_36
REMARK   10  A    between atoms: C_42  and  C_45
REMARK   11  A    between atoms: C_47  and  C_50
REMARK   12  A    between atoms: C_49  and  C_50
REMARK                            x       y       z     vdW  Elec       q    Type
REMARK                         _______ _______ _______ _____ _____    ______ ____
ROOT
ATOM      1  C   UNL     1      11.070 -11.527   0.000  0.00  0.00    +0.000 A 
ATOM      2  C   UNL     1      11.936 -11.027   0.000  0.00  0.00    +0.000 A 
ATOM      3  C   UNL     1      10.204 -11.027   0.000  0.00  0.00    +0.000 A 
ATOM      4  C   UNL     1      11.936 -10.027   0.000  0.00  0.00    +0.000 A 
ATOM      5  C   UNL     1      10.204 -10.027   0.000  0.00  0.00    +0.000 A 
ATOM      6  C   UNL     1      11.070  -9.527   0.000  0.00  0.00    +0.000 A 
ENDROOT
BRANCH   6   7
ATOM      7  C   UNL     1      11.070  -8.527   0.000  0.00  0.00    +0.000 C 
ATOM      8  C   UNL     1      11.936  -8.027   0.000  0.00  0.00    +0.000 C 
BRANCH   8  10
ATOM      9  O   UNL     1      11.070  -6.527   0.000  0.00  0.00    +0.000 OA
ATOM     10  C   UNL     1      11.936  -7.027   0.000  0.00  0.00    +0.000 C 
BRANCH  10  16
ATOM     11  O   UNL     1      13.668  -8.027   0.000  0.00  0.00    +0.000 OA
ATOM     12  C   UNL     1      14.534  -5.527   0.000  0.00  0.00    +0.000 A 
ATOM     13  C   UNL     1      14.534  -6.527   0.000  0.00  0.00    +0.000 A 
ATOM     14  C   UNL     1      13.668  -5.027   0.000  0.00  0.00    +0.000 A 
ATOM     15  C   UNL     1      13.668  -7.027   0.000  0.00  0.00    +0.000 A 
ATOM     16  C   UNL     1      12.802  -6.527   0.000  0.00  0.00    +0.000 A 
ATOM     17  C   UNL     1      12.802  -5.527   0.000  0.00  0.00    +0.000 A 
BRANCH  12  18
ATOM     18  O   UNL     1      15.400  -5.027   0.000  0.00  0.00    +0.000 OA
BRANCH  18  27
ATOM     19  O   UNL     1      14.534  -3.527   0.000  0.00  0.00    +0.000 OA
ATOM     20  O   UNL     1      15.400  -1.027   0.000  0.00  0.00    +0.000 OA
ATOM     21  O   UNL     1      17.132  -2.027   0.000  0.00  0.00    +0.000 OA
ATOM     22  O   UNL     1      17.132  -4.027   0.000  0.00  0.00    +0.000 OA
ATOM     23  C   UNL     1      15.400  -2.027   0.000  0.00  0.00    +0.000 C 
ATOM     24  C   UNL     1      16.266  -2.527   0.000  0.00  0.00    +0.000 C 
ATOM     25  C   UNL     1      14.534  -2.527   0.000  0.00  0.00    +0.000 C 
ATOM     26  C   UNL     1      16.266  -3.527   0.000  0.00  0.00    +0.000 C 
ATOM     27  C   UNL     1      15.400  -4.027   0.000  0.00  0.00    +0.000 C 
BRANCH  25  29
ATOM     28  O   UNL     1      13.668  -1.027   0.000  0.00  0.00    +0.000 OA
ATOM     29  C   UNL     1      13.668  -2.027   0.000  0.00  0.00    +0.000 C 
ENDBRANCH  25  29
ENDBRANCH  18  27
ENDBRANCH  12  18
ENDBRANCH  10  16
ENDBRANCH   8  10
ENDBRANCH   6   7
BRANCH   1  30
ATOM     30  O   UNL     1      11.070 -12.527   0.000  0.00  0.00    +0.000 OA
BRANCH  30  37
ATOM     31  O   UNL     1       9.338 -12.527   0.000  0.00  0.00    +0.000 OA
ATOM     32  O   UNL     1       9.338 -15.527   0.000  0.00  0.00    +0.000 OA
ATOM     33  O   UNL     1       7.606 -14.527   0.000  0.00  0.00    +0.000 OA
ATOM     34  C   UNL     1      10.204 -14.027   0.000  0.00  0.00    +0.000 C 
ATOM     35  C   UNL     1       9.338 -14.527   0.000  0.00  0.00    +0.000 C 
ATOM     36  C   UNL     1       8.472 -14.027   0.000  0.00  0.00    +0.000 C 
ATOM     37  C   UNL     1      10.204 -13.027   0.000  0.00  0.00    +0.000 C 
ATOM     38  C   UNL     1       8.472 -13.027   0.000  0.00  0.00    +0.000 C 
BRANCH  38  40
ATOM     39  O   UNL     1       6.740 -13.027   0.000  0.00  0.00    +0.000 OA
ATOM     40  C   UNL     1       7.606 -12.527   0.000  0.00  0.00    +0.000 C 
ENDBRANCH  38  40
BRANCH  34  41
ATOM     41  O   UNL     1      11.070 -14.527   0.000  0.00  0.00    +0.000 OA
BRANCH  41  47
ATOM     42  O   UNL     1      12.041 -13.032   0.000  0.00  0.00    +0.000 OA
ATOM     43  O   UNL     1      14.385 -13.191   0.000  0.00  0.00    +0.000 OA
ATOM     44  O   UNL     1      13.058 -15.412   0.000  0.00  0.00    +0.000 OA
ATOM     45  C   UNL     1      13.519 -13.691   0.000  0.00  0.00    +0.000 C 
ATOM     46  C   UNL     1      12.850 -14.434   0.000  0.00  0.00    +0.000 C 
ATOM     47  C   UNL     1      11.936 -14.027   0.000  0.00  0.00    +0.000 C 
ATOM     48  C   UNL     1      13.019 -12.825   0.000  0.00  0.00    +0.000 C 
BRANCH  45  50
ATOM     49  O   UNL     1      15.213 -14.051   0.000  0.00  0.00    +0.000 OA
ATOM     50  C   UNL     1      14.262 -14.360   0.000  0.00  0.00    +0.000 C 
ENDBRANCH  45  50
ENDBRANCH  41  47
ENDBRANCH  34  41
ENDBRANCH  30  37
ENDBRANCH   1  30
TORSDOF 12
