REMARK  Name = 
REMARK  6 active torsions:
REMARK  status: ('A' for Active; 'I' for Inactive)
REMARK    1  A    between atoms: C_4  and  O_19
REMARK    2  A    between atoms: C_9  and  C_11
REMARK    3  A    between atoms: C_13  and  O_23
REMARK    4  A    between atoms: C_15  and  O_21
REMARK    5  A    between atoms: O_19  and  C_28
REMARK    6  A    between atoms: C_30  and  C_31
REMARK                            x       y       z     vdW  Elec       q    Type
REMARK                         _______ _______ _______ _____ _____    ______ ____
ROOT
ATOM      1  C   UNL     1      12.991  -6.235   0.000  0.00  0.00    +0.000 A 
ATOM      2  C   UNL     1      13.899  -5.705   0.000  0.00  0.00    +0.000 A 
ATOM      3  C   UNL     1      12.995  -7.286   0.000  0.00  0.00    +0.000 A 
ATOM      4  C   UNL     1      13.908  -7.807   0.000  0.00  0.00    +0.000 A 
ATOM      5  C   UNL     1      14.816  -7.278   0.000  0.00  0.00    +0.000 A 
ATOM      6  C   UNL     1      14.811  -6.227   0.000  0.00  0.00    +0.000 A 
ATOM      7  C   UNL     1      15.728  -7.799   0.000  0.00  0.00    +0.000 C 
ATOM      8  C   UNL     1      16.636  -7.270   0.000  0.00  0.00    +0.000 C 
ATOM      9  C   UNL     1      16.631  -6.219   0.000  0.00  0.00    +0.000 C 
ATOM     10  O   UNL     1      15.719  -5.697   0.000  0.00  0.00    +0.000 OA
ATOM     11  O   UNL     1      15.730  -8.619   0.000  0.00  0.00    +0.000 OA
ATOM     12  O   UNL     1      12.194  -5.775   0.000  0.00  0.00    +0.000 OA
ENDROOT
BRANCH   9  13
ATOM     13  C   UNL     1      17.464  -5.734   0.000  0.00  0.00    +0.000 A 
ATOM     14  C   UNL     1      18.376  -6.256   0.000  0.00  0.00    +0.000 A 
ATOM     15  C   UNL     1      19.285  -5.727   0.000  0.00  0.00    +0.000 A 
ATOM     16  C   UNL     1      19.280  -4.676   0.000  0.00  0.00    +0.000 A 
ATOM     17  C   UNL     1      18.368  -4.154   0.000  0.00  0.00    +0.000 A 
ATOM     18  C   UNL     1      17.460  -4.683   0.000  0.00  0.00    +0.000 A 
ATOM     19  O   UNL     1      20.084  -4.212   0.000  0.00  0.00    +0.000 OA
BRANCH  17  20
ATOM     20  O   UNL     1      18.368  -3.241   0.000  0.00  0.00    +0.000 OA
ATOM     21  C   UNL     1      19.330  -2.686   0.000  0.00  0.00    +0.000 C 
ENDBRANCH  17  20
BRANCH  15  22
ATOM     22  O   UNL     1      20.146  -6.224   0.000  0.00  0.00    +0.000 OA
ATOM     23  C   UNL     1      21.180  -5.628   0.000  0.00  0.00    +0.000 C 
ENDBRANCH  15  22
ENDBRANCH   9  13
BRANCH   4  24
ATOM     24  O   UNL     1      13.908  -8.709   0.000  0.00  0.00    +0.000 OA
BRANCH  24  28
ATOM     25  C   UNL     1      10.640  -8.776   0.000  0.00  0.00    +0.000 C 
ATOM     26  C   UNL     1      11.166  -9.687   0.000  0.00  0.00    +0.000 C 
ATOM     27  C   UNL     1      12.183  -9.420   0.000  0.00  0.00    +0.000 C 
ATOM     28  C   UNL     1      13.194  -9.709   0.000  0.00  0.00    +0.000 C 
ATOM     29  O   UNL     1      12.668  -8.799   0.000  0.00  0.00    +0.000 OA
ATOM     30  C   UNL     1      11.651  -9.065   0.000  0.00  0.00    +0.000 C 
ATOM     31  O   UNL     1      10.025  -9.392   0.000  0.00  0.00    +0.000 OA
ATOM     32  O   UNL     1      10.595  -9.357   0.000  0.00  0.00    +0.000 OA
ATOM     33  O   UNL     1      11.964 -10.236   0.000  0.00  0.00    +0.000 OA
BRANCH  30  34
ATOM     34  C   UNL     1      11.451  -8.319   0.000  0.00  0.00    +0.000 C 
ATOM     35  O   UNL     1      10.840  -7.966   0.000  0.00  0.00    +0.000 OA
ENDBRANCH  30  34
ENDBRANCH  24  28
ENDBRANCH   4  24
TORSDOF 6
