REMARK  Name = 
REMARK  8 active torsions:
REMARK  status: ('A' for Active; 'I' for Inactive)
REMARK    1  A    between atoms: C_1  and  O_18
REMARK    2  A    between atoms: C_9  and  C_12
REMARK    3  A    between atoms: C_15  and  O_40
REMARK    4  A    between atoms: O_18  and  C_23
REMARK    5  A    between atoms: C_22  and  O_28
REMARK    6  A    between atoms: C_25  and  C_38
REMARK    7  A    between atoms: O_28  and  C_33
REMARK    8  A    between atoms: C_35  and  C_39
REMARK                            x       y       z     vdW  Elec       q    Type
REMARK                         _______ _______ _______ _____ _____    ______ ____
ROOT
ATOM      1  C   UNL     1       9.083  -3.713   0.000  0.00  0.00    +0.000 C 
ATOM      2  C   UNL     1       9.845  -4.718   0.000  0.00  0.00    +0.000 C 
ATOM      3  C   UNL     1      10.941  -4.292   0.000  0.00  0.00    +0.000 C 
ATOM      4  C   UNL     1      11.998  -4.280   0.000  0.00  0.00    +0.000 C 
ATOM      5  O   UNL     1      11.230  -3.512   0.000  0.00  0.00    +0.000 OA
ATOM      6  C   UNL     1      10.110  -3.914   0.000  0.00  0.00    +0.000 C 
ATOM      7  O   UNL     1       8.154  -4.100   0.000  0.00  0.00    +0.000 OA
ATOM      8  O   UNL     1       8.793  -4.591   0.000  0.00  0.00    +0.000 OA
ENDROOT
BRANCH   6   9
ATOM      9  C   UNL     1       9.569  -3.253   0.000  0.00  0.00    +0.000 C 
ATOM     10  O   UNL     1       9.569  -2.723   0.000  0.00  0.00    +0.000 OA
ATOM     11  O   UNL     1       9.022  -3.400   0.000  0.00  0.00    +0.000 OA
ENDBRANCH   6   9
BRANCH   4  12
ATOM     12  O   UNL     1      12.970  -3.926   0.000  0.00  0.00    +0.000 OA
BRANCH  12  13
ATOM     13  C   UNL     1      13.802  -4.407   0.000  0.00  0.00    +0.000 A 
ATOM     14  C   UNL     1      13.802  -5.367   0.000  0.00  0.00    +0.000 A 
ATOM     15  C   UNL     1      14.634  -5.848   0.000  0.00  0.00    +0.000 A 
ATOM     16  C   UNL     1      15.466  -5.367   0.000  0.00  0.00    +0.000 A 
ATOM     17  C   UNL     1      15.466  -4.407   0.000  0.00  0.00    +0.000 A 
ATOM     18  C   UNL     1      14.634  -3.926   0.000  0.00  0.00    +0.000 A 
ATOM     19  C   UNL     1      16.299  -5.848   0.000  0.00  0.00    +0.000 A 
ATOM     20  C   UNL     1      17.131  -5.367   0.000  0.00  0.00    +0.000 A 
ATOM     21  C   UNL     1      17.131  -4.407   0.000  0.00  0.00    +0.000 A 
ATOM     22  O   UNL     1      16.299  -3.926   0.000  0.00  0.00    +0.000 OA
ATOM     23  O   UNL     1      16.299  -6.812   0.000  0.00  0.00    +0.000 OA
ATOM     24  O   UNL     1      14.634  -6.840   0.000  0.00  0.00    +0.000 OA
BRANCH  21  25
ATOM     25  C   UNL     1      17.963  -3.926   0.000  0.00  0.00    +0.000 A 
ATOM     26  C   UNL     1      18.811  -4.416   0.000  0.00  0.00    +0.000 A 
ATOM     27  C   UNL     1      19.659  -3.926   0.000  0.00  0.00    +0.000 A 
ATOM     28  C   UNL     1      19.659  -2.947   0.000  0.00  0.00    +0.000 A 
ATOM     29  C   UNL     1      18.811  -2.457   0.000  0.00  0.00    +0.000 A 
ATOM     30  C   UNL     1      17.963  -2.947   0.000  0.00  0.00    +0.000 A 
BRANCH  28  31
ATOM     31  O   UNL     1      20.507  -2.457   0.000  0.00  0.00    +0.000 OA
ATOM     32  C   UNL     1      21.262  -2.893   0.000  0.00  0.00    +0.000 C 
ENDBRANCH  28  31
ENDBRANCH  21  25
ENDBRANCH  12  13
ENDBRANCH   4  12
BRANCH   3  33
ATOM     33  O   UNL     1      11.997  -5.081   0.000  0.00  0.00    +0.000 OA
BRANCH  33  38
ATOM     34  O   UNL     1       7.277  -6.664   0.000  0.00  0.00    +0.000 OA
ATOM     35  C   UNL     1       8.057  -5.969   0.000  0.00  0.00    +0.000 C 
ATOM     36  C   UNL     1       9.052  -6.743   0.000  0.00  0.00    +0.000 C 
ATOM     37  C   UNL     1      10.001  -6.047   0.000  0.00  0.00    +0.000 C 
ATOM     38  C   UNL     1      11.019  -5.763   0.000  0.00  0.00    +0.000 C 
ATOM     39  O   UNL     1      10.078  -5.219   0.000  0.00  0.00    +0.000 OA
ATOM     40  C   UNL     1       9.100  -5.897   0.000  0.00  0.00    +0.000 C 
ATOM     41  O   UNL     1       8.153  -6.945   0.000  0.00  0.00    +0.000 OA
ATOM     42  O   UNL     1      11.255  -6.451   0.000  0.00  0.00    +0.000 OA
BRANCH  40  43
ATOM     43  C   UNL     1       7.991  -5.364   0.000  0.00  0.00    +0.000 C 
ATOM     44  O   UNL     1       7.991  -4.785   0.000  0.00  0.00    +0.000 OA
ATOM     45  O   UNL     1       7.527  -5.632   0.000  0.00  0.00    +0.000 OA
ENDBRANCH  40  43
ENDBRANCH  33  38
ENDBRANCH   3  33
TORSDOF 8
