REMARK  Name = 
REMARK  10 active torsions:
REMARK  status: ('A' for Active; 'I' for Inactive)
REMARK    1  A    between atoms: C_1  and  O_20
REMARK    2  A    between atoms: C_3  and  O_19
REMARK    3  A    between atoms: C_4  and  C_7
REMARK    4  A    between atoms: C_5  and  O_17
REMARK    5  A    between atoms: C_7  and  C_8
REMARK    6  A    between atoms: C_8  and  C_9
REMARK    7  A    between atoms: C_9  and  C_10
REMARK    8  A    between atoms: C_13  and  O_18
REMARK    9  A    between atoms: O_18  and  C_24
REMARK   10  A    between atoms: C_26  and  C_27
REMARK                            x       y       z     vdW  Elec       q    Type
REMARK                         _______ _______ _______ _____ _____    ______ ____
ROOT
ATOM      1  C   UNL     1      16.675  -4.195   0.000  0.00  0.00    +0.000 A 
ATOM      2  C   UNL     1      17.569  -4.711   0.000  0.00  0.00    +0.000 A 
ATOM      3  C   UNL     1      18.463  -4.195   0.000  0.00  0.00    +0.000 A 
ATOM      4  C   UNL     1      18.463  -3.163   0.000  0.00  0.00    +0.000 A 
ATOM      5  C   UNL     1      17.569  -2.647   0.000  0.00  0.00    +0.000 A 
ATOM      6  C   UNL     1      16.675  -3.163   0.000  0.00  0.00    +0.000 A 
ENDROOT
BRANCH   1   7
ATOM      7  C   UNL     1      15.781  -4.711   0.000  0.00  0.00    +0.000 C 
BRANCH   7   8
ATOM      8  C   UNL     1      15.781  -5.743   0.000  0.00  0.00    +0.000 C 
BRANCH   8   9
ATOM      9  C   UNL     1      14.888  -6.259   0.000  0.00  0.00    +0.000 C 
ATOM     10  O   UNL     1      14.888  -7.291   0.000  0.00  0.00    +0.000 OA
BRANCH   9  14
ATOM     11  C   UNL     1      12.206  -4.711   0.000  0.00  0.00    +0.000 A 
ATOM     12  C   UNL     1      12.206  -5.743   0.000  0.00  0.00    +0.000 A 
ATOM     13  C   UNL     1      13.100  -6.259   0.000  0.00  0.00    +0.000 A 
ATOM     14  C   UNL     1      13.994  -5.743   0.000  0.00  0.00    +0.000 A 
ATOM     15  C   UNL     1      13.994  -4.711   0.000  0.00  0.00    +0.000 A 
ATOM     16  C   UNL     1      13.100  -4.195   0.000  0.00  0.00    +0.000 A 
BRANCH  15  17
ATOM     17  O   UNL     1      14.888  -4.195   0.000  0.00  0.00    +0.000 OA
ATOM     18  C   UNL     1      14.888  -3.304   0.000  0.00  0.00    +0.000 C 
ENDBRANCH  15  17
BRANCH  13  19
ATOM     19  O   UNL     1      13.100  -7.291   0.000  0.00  0.00    +0.000 OA
ATOM     20  C   UNL     1      12.299  -7.753   0.000  0.00  0.00    +0.000 C 
ENDBRANCH  13  19
BRANCH  11  21
ATOM     21  O   UNL     1      11.312  -4.195   0.000  0.00  0.00    +0.000 OA
ATOM     22  C   UNL     1      10.425  -4.707   0.000  0.00  0.00    +0.000 C 
ENDBRANCH  11  21
ENDBRANCH   9  14
ENDBRANCH   8   9
ENDBRANCH   7   8
ENDBRANCH   1   7
BRANCH   4  23
ATOM     23  O   UNL     1      19.357  -2.647   0.000  0.00  0.00    +0.000 OA
BRANCH  23  27
ATOM     24  C   UNL     1      18.970  -6.105   0.000  0.00  0.00    +0.000 C 
ATOM     25  C   UNL     1      19.948  -5.777   0.000  0.00  0.00    +0.000 C 
ATOM     26  C   UNL     1      19.890  -4.746   0.000  0.00  0.00    +0.000 C 
ATOM     27  C   UNL     1      20.365  -3.829   0.000  0.00  0.00    +0.000 C 
ATOM     28  O   UNL     1      19.386  -4.158   0.000  0.00  0.00    +0.000 OA
ATOM     29  C   UNL     1      19.445  -5.189   0.000  0.00  0.00    +0.000 C 
ATOM     30  O   UNL     1      19.361  -6.784   0.000  0.00  0.00    +0.000 OA
ATOM     31  O   UNL     1      19.472  -6.253   0.000  0.00  0.00    +0.000 OA
ATOM     32  O   UNL     1      20.632  -5.115   0.000  0.00  0.00    +0.000 OA
BRANCH  29  33
ATOM     33  C   UNL     1      18.687  -5.236   0.000  0.00  0.00    +0.000 C 
ATOM     34  O   UNL     1      18.229  -5.756   0.000  0.00  0.00    +0.000 OA
ENDBRANCH  29  33
ENDBRANCH  23  27
ENDBRANCH   4  23
TORSDOF 10
