REMARK  Name = 
REMARK  3 active torsions:
REMARK  status: ('A' for Active; 'I' for Inactive)
REMARK    1  A    between atoms: C_8  and  C_11
REMARK    2  A    between atoms: C_12  and  O_21
REMARK    3  A    between atoms: C_13  and  O_23
REMARK                            x       y       z     vdW  Elec       q    Type
REMARK                         _______ _______ _______ _____ _____    ______ ____
ROOT
ATOM      1  C   UNL     1      11.191  -2.893   0.000  0.00  0.00    +0.000 A 
ATOM      2  C   UNL     1      11.191  -3.837   0.000  0.00  0.00    +0.000 A 
ATOM      3  C   UNL     1      12.009  -4.309   0.000  0.00  0.00    +0.000 A 
ATOM      4  C   UNL     1      12.827  -3.837   0.000  0.00  0.00    +0.000 A 
ATOM      5  C   UNL     1      12.827  -2.893   0.000  0.00  0.00    +0.000 A 
ATOM      6  C   UNL     1      12.009  -2.420   0.000  0.00  0.00    +0.000 A 
ATOM      7  C   UNL     1      13.645  -4.309   0.000  0.00  0.00    +0.000 C 
ATOM      8  C   UNL     1      14.463  -3.837   0.000  0.00  0.00    +0.000 C 
ATOM      9  C   UNL     1      14.463  -2.893   0.000  0.00  0.00    +0.000 C 
ATOM     10  O   UNL     1      13.645  -2.420   0.000  0.00  0.00    +0.000 OA
ATOM     11  O   UNL     1      13.645  -5.253   0.000  0.00  0.00    +0.000 OA
ATOM     12  O   UNL     1      10.373  -2.420   0.000  0.00  0.00    +0.000 OA
ATOM     13  O   UNL     1      12.009  -5.254   0.000  0.00  0.00    +0.000 OA
ENDROOT
BRANCH   8  14
ATOM     14  C   UNL     1      15.281  -4.309   0.000  0.00  0.00    +0.000 A 
ATOM     15  C   UNL     1      15.281  -5.319   0.000  0.00  0.00    +0.000 A 
ATOM     16  C   UNL     1      16.155  -5.824   0.000  0.00  0.00    +0.000 A 
ATOM     17  C   UNL     1      17.030  -5.319   0.000  0.00  0.00    +0.000 A 
ATOM     18  C   UNL     1      17.030  -4.309   0.000  0.00  0.00    +0.000 A 
ATOM     19  C   UNL     1      16.155  -3.804   0.000  0.00  0.00    +0.000 A 
ATOM     20  O   UNL     1      17.848  -5.791   0.000  0.00  0.00    +0.000 OA
BRANCH  15  21
ATOM     21  O   UNL     1      14.463  -5.791   0.000  0.00  0.00    +0.000 OA
ATOM     22  C   UNL     1      14.463  -7.262   0.000  0.00  0.00    +0.000 C 
ENDBRANCH  15  21
BRANCH  16  23
ATOM     23  O   UNL     1      16.155  -6.768   0.000  0.00  0.00    +0.000 OA
ATOM     24  C   UNL     1      14.882  -7.503   0.000  0.00  0.00    +0.000 C 
ENDBRANCH  16  23
ENDBRANCH   8  14
TORSDOF 3
