REMARK  Name = 
REMARK  9 active torsions:
REMARK  status: ('A' for Active; 'I' for Inactive)
REMARK    1  A    between atoms: C_5  and  C_7
REMARK    2  A    between atoms: C_8  and  C_34
REMARK    3  A    between atoms: C_9  and  O_32
REMARK    4  A    between atoms: C_14  and  O_19
REMARK    5  A    between atoms: C_23  and  O_32
REMARK    6  A    between atoms: C_25  and  C_26
REMARK    7  A    between atoms: C_34  and  C_35
REMARK    8  A    between atoms: C_35  and  C_36
REMARK    9  A    between atoms: C_36  and  O_39
REMARK                            x       y       z     vdW  Elec       q    Type
REMARK                         _______ _______ _______ _____ _____    ______ ____
ROOT
ATOM      1  C   UNL     1      15.296  -7.058   0.000  0.00  0.00    +0.000 A 
ATOM      2  C   UNL     1      15.296  -8.058   0.000  0.00  0.00    +0.000 A 
ATOM      3  C   UNL     1      16.162  -8.558   0.000  0.00  0.00    +0.000 A 
ATOM      4  C   UNL     1      17.029  -8.058   0.000  0.00  0.00    +0.000 A 
ATOM      5  C   UNL     1      17.029  -7.058   0.000  0.00  0.00    +0.000 A 
ATOM      6  O   UNL     1      16.162  -6.557   0.000  0.00  0.00    +0.000 OA
ATOM      7  C   UNL     1      14.430  -6.557   0.000  0.00  0.00    +0.000 A 
ATOM      8  C   UNL     1      13.563  -7.058   0.000  0.00  0.00    +0.000 A 
ATOM      9  C   UNL     1      13.563  -8.058   0.000  0.00  0.00    +0.000 A 
ATOM     10  C   UNL     1      14.430  -8.558   0.000  0.00  0.00    +0.000 A 
ATOM     11  O   UNL     1      16.162  -9.558   0.000  0.00  0.00    +0.000 OA
ATOM     12  O   UNL     1      14.430  -9.558   0.000  0.00  0.00    +0.000 OA
ATOM     13  O   UNL     1      17.895  -8.558   0.000  0.00  0.00    +0.000 OA
ENDROOT
BRANCH   5  14
ATOM     14  C   UNL     1      17.895  -6.557   0.000  0.00  0.00    +0.000 A 
ATOM     15  C   UNL     1      18.761  -7.058   0.000  0.00  0.00    +0.000 A 
ATOM     16  C   UNL     1      19.627  -6.557   0.000  0.00  0.00    +0.000 A 
ATOM     17  C   UNL     1      19.627  -5.557   0.000  0.00  0.00    +0.000 A 
ATOM     18  C   UNL     1      18.761  -5.057   0.000  0.00  0.00    +0.000 A 
ATOM     19  C   UNL     1      17.895  -5.557   0.000  0.00  0.00    +0.000 A 
BRANCH  17  20
ATOM     20  O   UNL     1      20.494  -5.057   0.000  0.00  0.00    +0.000 OA
ATOM     21  C   UNL     1      21.360  -5.557   0.000  0.00  0.00    +0.000 C 
ENDBRANCH  17  20
ENDBRANCH   5  14
BRANCH   8  22
ATOM     22  O   UNL     1      12.697  -6.557   0.000  0.00  0.00    +0.000 OA
BRANCH  22  26
ATOM     23  C   UNL     1       9.302  -5.950   0.000  0.00  0.00    +0.000 C 
ATOM     24  C   UNL     1       9.802  -6.816   0.000  0.00  0.00    +0.000 C 
ATOM     25  C   UNL     1      10.769  -6.563   0.000  0.00  0.00    +0.000 C 
ATOM     26  C   UNL     1      11.731  -6.816   0.000  0.00  0.00    +0.000 C 
ATOM     27  O   UNL     1      11.231  -5.950   0.000  0.00  0.00    +0.000 OA
ATOM     28  C   UNL     1      10.263  -6.204   0.000  0.00  0.00    +0.000 C 
ATOM     29  O   UNL     1       8.335  -6.209   0.000  0.00  0.00    +0.000 OA
ATOM     30  O   UNL     1       8.835  -6.557   0.000  0.00  0.00    +0.000 OA
ATOM     31  O   UNL     1      11.270  -7.429   0.000  0.00  0.00    +0.000 OA
BRANCH  28  32
ATOM     32  C   UNL     1       9.763  -5.337   0.000  0.00  0.00    +0.000 C 
ATOM     33  O   UNL     1       8.797  -5.078   0.000  0.00  0.00    +0.000 OA
ENDBRANCH  28  32
ENDBRANCH  22  26
ENDBRANCH   8  22
BRANCH   7  34
ATOM     34  C   UNL     1      14.430  -5.557   0.000  0.00  0.00    +0.000 C 
BRANCH  34  35
ATOM     35  C   UNL     1      13.563  -5.057   0.000  0.00  0.00    +0.000 C 
BRANCH  35  36
ATOM     36  C   UNL     1      13.563  -4.057   0.000  0.00  0.00    +0.000 C 
ATOM     37  C   UNL     1      12.697  -3.557   0.000  0.00  0.00    +0.000 C 
ATOM     38  C   UNL     1      14.430  -3.557   0.000  0.00  0.00    +0.000 C 
BRANCH  36  39
ATOM     39  O   UNL     1      13.563  -3.057   0.000  0.00  0.00    +0.000 OA
ATOM     40  C   UNL     1      14.430  -2.556   0.000  0.00  0.00    +0.000 C 
ENDBRANCH  36  39
ENDBRANCH  35  36
ENDBRANCH  34  35
ENDBRANCH   7  34
TORSDOF 9
