REMARK  Name = 
REMARK  14 active torsions:
REMARK  status: ('A' for Active; 'I' for Inactive)
REMARK    1  A    between atoms: C_2  and  C_7
REMARK    2  A    between atoms: C_12  and  O_19
REMARK    3  A    between atoms: O_19  and  C_28
REMARK    4  A    between atoms: C_25  and  O_32
REMARK    5  A    between atoms: C_26  and  O_31
REMARK    6  A    between atoms: C_27  and  O_30
REMARK    7  A    between atoms: O_30  and  C_34
REMARK    8  A    between atoms: O_31  and  C_37
REMARK    9  A    between atoms: O_32  and  C_43
REMARK   10  A    between atoms: C_41  and  O_49
REMARK   11  A    between atoms: C_45  and  C_46
REMARK   12  A    between atoms: C_46  and  O_47
REMARK   13  A    between atoms: O_47  and  C_54
REMARK   14  A    between atoms: O_49  and  C_51
REMARK                            x       y       z     vdW  Elec       q    Type
REMARK                         _______ _______ _______ _____ _____    ______ ____
ROOT
ATOM      1  C   UNL     1      16.511  -8.803   0.000  0.00  0.00    +0.000 C 
ATOM      2  C   UNL     1      15.979  -9.724   0.000  0.00  0.00    +0.000 C 
ATOM      3  C   UNL     1      17.001  -9.431   0.000  0.00  0.00    +0.000 C 
ATOM      4  C   UNL     1      18.030  -9.701   0.000  0.00  0.00    +0.000 C 
ATOM      5  C   UNL     1      18.561  -8.780   0.000  0.00  0.00    +0.000 C 
ATOM      6  O   UNL     1      17.539  -9.072   0.000  0.00  0.00    +0.000 OA
ATOM      7  C   UNL     1      15.722  -9.014   0.000  0.00  0.00    +0.000 C 
ENDROOT
BRANCH   5   8
ATOM      8  O   UNL     1      18.447  -7.501   0.000  0.00  0.00    +0.000 OA
BRANCH   8  14
ATOM      9  C   UNL     1      17.526  -5.907   0.000  0.00  0.00    +0.000 A 
ATOM     10  O   UNL     1      16.606  -5.375   0.000  0.00  0.00    +0.000 OA
ATOM     11  C   UNL     1      15.686  -5.907   0.000  0.00  0.00    +0.000 A 
ATOM     12  C   UNL     1      15.686  -6.970   0.000  0.00  0.00    +0.000 A 
ATOM     13  C   UNL     1      16.606  -7.501   0.000  0.00  0.00    +0.000 A 
ATOM     14  C   UNL     1      17.526  -6.970   0.000  0.00  0.00    +0.000 A 
ATOM     15  C   UNL     1      14.765  -5.375   0.000  0.00  0.00    +0.000 A 
ATOM     16  C   UNL     1      13.845  -5.907   0.000  0.00  0.00    +0.000 A 
ATOM     17  C   UNL     1      13.845  -6.970   0.000  0.00  0.00    +0.000 A 
ATOM     18  C   UNL     1      14.765  -7.501   0.000  0.00  0.00    +0.000 A 
ATOM     19  O   UNL     1      16.606  -8.412   0.000  0.00  0.00    +0.000 OA
ATOM     20  O   UNL     1      12.924  -5.375   0.000  0.00  0.00    +0.000 OA
ATOM     21  O   UNL     1      14.765  -8.391   0.000  0.00  0.00    +0.000 OA
BRANCH   9  23
ATOM     22  C   UNL     1      19.367  -5.907   0.000  0.00  0.00    +0.000 A 
ATOM     23  C   UNL     1      18.447  -5.375   0.000  0.00  0.00    +0.000 A 
ATOM     24  C   UNL     1      18.447  -4.312   0.000  0.00  0.00    +0.000 A 
ATOM     25  C   UNL     1      19.367  -3.781   0.000  0.00  0.00    +0.000 A 
ATOM     26  C   UNL     1      20.288  -4.312   0.000  0.00  0.00    +0.000 A 
ATOM     27  C   UNL     1      20.288  -5.375   0.000  0.00  0.00    +0.000 A 
ATOM     28  O   UNL     1      21.208  -3.781   0.000  0.00  0.00    +0.000 OA
ATOM     29  O   UNL     1      19.367  -2.718   0.000  0.00  0.00    +0.000 OA
ATOM     30  O   UNL     1      21.161  -5.880   0.000  0.00  0.00    +0.000 OA
ENDBRANCH   9  23
ENDBRANCH   8  14
ENDBRANCH   5   8
BRANCH   4  31
ATOM     31  O   UNL     1      18.049 -10.614   0.000  0.00  0.00    +0.000 OA
BRANCH  31  32
ATOM     32  C   UNL     1      18.049 -11.411   0.000  0.00  0.00    +0.000 C 
ATOM     33  O   UNL     1      17.321 -11.938   0.000  0.00  0.00    +0.000 OA
ATOM     34  C   UNL     1      18.676 -12.039   0.000  0.00  0.00    +0.000 C 
ENDBRANCH  31  32
ENDBRANCH   4  31
BRANCH   3  35
ATOM     35  O   UNL     1      16.082 -10.428   0.000  0.00  0.00    +0.000 OA
BRANCH  35  36
ATOM     36  C   UNL     1      16.082 -11.331   0.000  0.00  0.00    +0.000 C 
ATOM     37  O   UNL     1      15.310 -11.763   0.000  0.00  0.00    +0.000 OA
ATOM     38  C   UNL     1      16.751 -11.921   0.000  0.00  0.00    +0.000 C 
ENDBRANCH  35  36
ENDBRANCH   3  35
BRANCH   2  39
ATOM     39  O   UNL     1      15.154  -9.663   0.000  0.00  0.00    +0.000 OA
BRANCH  39  43
ATOM     40  C   UNL     1      12.122 -11.844   0.000  0.00  0.00    +0.000 C 
ATOM     41  C   UNL     1      13.149 -12.120   0.000  0.00  0.00    +0.000 C 
ATOM     42  C   UNL     1      13.685 -11.202   0.000  0.00  0.00    +0.000 C 
ATOM     43  C   UNL     1      14.615 -10.686   0.000  0.00  0.00    +0.000 C 
ATOM     44  O   UNL     1      13.588 -10.410   0.000  0.00  0.00    +0.000 OA
ATOM     45  C   UNL     1      13.051 -11.328   0.000  0.00  0.00    +0.000 C 
ATOM     46  O   UNL     1      11.720 -12.540   0.000  0.00  0.00    +0.000 OA
ATOM     47  O   UNL     1      14.595 -11.202   0.000  0.00  0.00    +0.000 OA
BRANCH  45  48
ATOM     48  C   UNL     1      12.415 -11.092   0.000  0.00  0.00    +0.000 C 
BRANCH  48  49
ATOM     49  O   UNL     1      11.671 -11.517   0.000  0.00  0.00    +0.000 OA
BRANCH  49  50
ATOM     50  C   UNL     1      10.980 -10.773   0.000  0.00  0.00    +0.000 C 
ATOM     51  O   UNL     1      10.226 -11.441   0.000  0.00  0.00    +0.000 OA
ATOM     52  C   UNL     1      10.980 -10.029   0.000  0.00  0.00    +0.000 C 
ENDBRANCH  49  50
ENDBRANCH  48  49
ENDBRANCH  45  48
BRANCH  41  53
ATOM     53  O   UNL     1      12.336 -12.633   0.000  0.00  0.00    +0.000 OA
BRANCH  53  54
ATOM     54  C   UNL     1      12.944 -13.176   0.000  0.00  0.00    +0.000 C 
ATOM     55  O   UNL     1      12.944 -13.962   0.000  0.00  0.00    +0.000 OA
ATOM     56  C   UNL     1      13.685 -12.748   0.000  0.00  0.00    +0.000 C 
ENDBRANCH  53  54
ENDBRANCH  41  53
ENDBRANCH  39  43
ENDBRANCH   2  39
TORSDOF 14
