REMARK  Name = 
REMARK  9 active torsions:
REMARK  status: ('A' for Active; 'I' for Inactive)
REMARK    1  A    between atoms: C_1  and  O_52
REMARK    2  A    between atoms: C_8  and  O_18
REMARK    3  A    between atoms: C_9  and  C_12
REMARK    4  A    between atoms: O_18  and  C_28
REMARK    5  A    between atoms: C_22  and  O_39
REMARK    6  A    between atoms: C_24  and  O_37
REMARK    7  A    between atoms: C_30  and  C_36
REMARK    8  A    between atoms: C_36  and  O_37
REMARK    9  A    between atoms: O_39  and  C_46
REMARK                            x       y       z     vdW  Elec       q    Type
REMARK                         _______ _______ _______ _____ _____    ______ ____
ROOT
ATOM      1  C   UNL     1      18.422  -5.734   0.000  0.00  0.00    +0.000 C 
ATOM      2  C   UNL     1      17.889  -6.657   0.000  0.00  0.00    +0.000 C 
ATOM      3  O   UNL     1      18.914  -6.364   0.000  0.00  0.00    +0.000 OA
ATOM      4  C   UNL     1      19.944  -6.657   0.000  0.00  0.00    +0.000 C 
ATOM      5  C   UNL     1      20.477  -5.734   0.000  0.00  0.00    +0.000 C 
ATOM      6  C   UNL     1      19.453  -6.026   0.000  0.00  0.00    +0.000 C 
ATOM      7  O   UNL     1      17.432  -5.999   0.000  0.00  0.00    +0.000 OA
ATOM      8  O   UNL     1      19.875  -5.295   0.000  0.00  0.00    +0.000 OA
ATOM      9  O   UNL     1      20.477  -4.654   0.000  0.00  0.00    +0.000 OA
ENDROOT
BRANCH   2  10
ATOM     10  O   UNL     1      16.477  -6.423   0.000  0.00  0.00    +0.000 OA
BRANCH  10  18
ATOM     11  C   UNL     1      12.319  -4.786   0.000  0.00  0.00    +0.000 A 
ATOM     12  C   UNL     1      12.319  -5.806   0.000  0.00  0.00    +0.000 A 
ATOM     13  C   UNL     1      13.202  -6.316   0.000  0.00  0.00    +0.000 A 
ATOM     14  C   UNL     1      14.085  -5.806   0.000  0.00  0.00    +0.000 A 
ATOM     15  C   UNL     1      14.085  -4.786   0.000  0.00  0.00    +0.000 A 
ATOM     16  C   UNL     1      13.202  -4.277   0.000  0.00  0.00    +0.000 A 
ATOM     17  C   UNL     1      14.968  -6.316   0.000  0.00  0.00    +0.000 A 
ATOM     18  C   UNL     1      15.851  -5.806   0.000  0.00  0.00    +0.000 A 
ATOM     19  C   UNL     1      15.851  -4.786   0.000  0.00  0.00    +0.000 A 
ATOM     20  O   UNL     1      14.968  -4.277   0.000  0.00  0.00    +0.000 OA
ATOM     21  O   UNL     1      14.968  -7.111   0.000  0.00  0.00    +0.000 OA
ATOM     22  O   UNL     1      13.202  -7.335   0.000  0.00  0.00    +0.000 OA
BRANCH  19  23
ATOM     23  C   UNL     1      16.734  -4.277   0.000  0.00  0.00    +0.000 A 
ATOM     24  C   UNL     1      17.634  -4.796   0.000  0.00  0.00    +0.000 A 
ATOM     25  C   UNL     1      18.534  -4.277   0.000  0.00  0.00    +0.000 A 
ATOM     26  C   UNL     1      18.534  -3.238   0.000  0.00  0.00    +0.000 A 
ATOM     27  C   UNL     1      17.634  -2.718   0.000  0.00  0.00    +0.000 A 
ATOM     28  C   UNL     1      16.734  -3.238   0.000  0.00  0.00    +0.000 A 
ATOM     29  O   UNL     1      19.540  -2.657   0.000  0.00  0.00    +0.000 OA
ENDBRANCH  19  23
BRANCH  11  30
ATOM     30  O   UNL     1      11.587  -4.259   0.000  0.00  0.00    +0.000 OA
ATOM     31  C   UNL     1      10.793  -4.718   0.000  0.00  0.00    +0.000 C 
ENDBRANCH  11  30
ENDBRANCH  10  18
ENDBRANCH   2  10
BRANCH   4  32
ATOM     32  C   UNL     1      20.922  -6.657   0.000  0.00  0.00    +0.000 C 
BRANCH  32  33
ATOM     33  O   UNL     1      20.744  -7.451   0.000  0.00  0.00    +0.000 OA
BRANCH  33  38
ATOM     34  C   UNL     1      18.780  -8.191   0.000  0.00  0.00    +0.000 C 
ATOM     35  C   UNL     1      18.247  -9.114   0.000  0.00  0.00    +0.000 C 
ATOM     36  C   UNL     1      19.272  -8.821   0.000  0.00  0.00    +0.000 C 
ATOM     37  C   UNL     1      20.303  -9.114   0.000  0.00  0.00    +0.000 C 
ATOM     38  C   UNL     1      20.836  -8.191   0.000  0.00  0.00    +0.000 C 
ATOM     39  O   UNL     1      19.811  -8.484   0.000  0.00  0.00    +0.000 OA
ATOM     40  C   UNL     1      17.875  -8.434   0.000  0.00  0.00    +0.000 C 
ATOM     41  O   UNL     1      17.569  -9.234   0.000  0.00  0.00    +0.000 OA
ATOM     42  O   UNL     1      20.303 -10.013   0.000  0.00  0.00    +0.000 OA
BRANCH  36  43
ATOM     43  O   UNL     1      18.782  -9.670   0.000  0.00  0.00    +0.000 OA
BRANCH  43  48
ATOM     44  C   UNL     1      17.110 -10.385   0.000  0.00  0.00    +0.000 C 
ATOM     45  C   UNL     1      16.577 -11.308   0.000  0.00  0.00    +0.000 C 
ATOM     46  C   UNL     1      17.602 -11.015   0.000  0.00  0.00    +0.000 C 
ATOM     47  C   UNL     1      18.633 -11.308   0.000  0.00  0.00    +0.000 C 
ATOM     48  C   UNL     1      19.166 -10.385   0.000  0.00  0.00    +0.000 C 
ATOM     49  O   UNL     1      18.141 -10.678   0.000  0.00  0.00    +0.000 OA
ATOM     50  C   UNL     1      16.300 -10.602   0.000  0.00  0.00    +0.000 C 
ATOM     51  O   UNL     1      16.014 -11.702   0.000  0.00  0.00    +0.000 OA
ATOM     52  O   UNL     1      17.112 -11.863   0.000  0.00  0.00    +0.000 OA
ATOM     53  O   UNL     1      18.633 -12.207   0.000  0.00  0.00    +0.000 OA
ENDBRANCH  43  48
ENDBRANCH  36  43
ENDBRANCH  33  38
ENDBRANCH  32  33
ENDBRANCH   4  32
TORSDOF 9
