REMARK  Name = 
REMARK  5 active torsions:
REMARK  status: ('A' for Active; 'I' for Inactive)
REMARK    1  A    between atoms: S_1  and  O_9
REMARK    2  A    between atoms: O_3  and  C_19
REMARK    3  A    between atoms: O_3  and  C_21
REMARK    4  A    between atoms: O_9  and  C_29
REMARK    5  A    between atoms: C_28  and  C_30
REMARK                            x       y       z     vdW  Elec       q    Type
REMARK                         _______ _______ _______ _____ _____    ______ ____
ROOT
ATOM      1  O   UNL     1      14.868 -10.332   0.000  0.00  0.00    +0.000 OA
ATOM      2  O   UNL     1      13.129  -7.314   0.000  0.00  0.00    +0.000 OA
ATOM      3  O   UNL     1      14.868  -7.348   0.000  0.00  0.00    +0.000 OA
ATOM      4  C   UNL     1      12.216  -9.855   0.000  0.00  0.00    +0.000 A 
ATOM      5  C   UNL     1      13.118 -10.366   0.000  0.00  0.00    +0.000 A 
ATOM      6  C   UNL     1      14.007  -9.835   0.000  0.00  0.00    +0.000 A 
ATOM      7  C   UNL     1      14.007  -8.840   0.000  0.00  0.00    +0.000 A 
ATOM      8  C   UNL     1      12.216  -8.819   0.000  0.00  0.00    +0.000 A 
ATOM      9  C   UNL     1      13.118  -8.308   0.000  0.00  0.00    +0.000 A 
ATOM     10  C   UNL     1      14.868  -8.343   0.000  0.00  0.00    +0.000 A 
ATOM     11  C   UNL     1      15.729  -9.835   0.000  0.00  0.00    +0.000 A 
ATOM     12  C   UNL     1      15.729  -8.840   0.000  0.00  0.00    +0.000 A 
ENDROOT
BRANCH  11  15
ATOM     13  O   UNL     1      17.452 -12.818   0.000  0.00  0.00    +0.000 OA
ATOM     14  O   UNL     1      19.175 -11.824   0.000  0.00  0.00    +0.000 OA
ATOM     15  C   UNL     1      16.591 -10.332   0.000  0.00  0.00    +0.000 A 
ATOM     16  C   UNL     1      16.591 -11.326   0.000  0.00  0.00    +0.000 A 
ATOM     17  C   UNL     1      17.452  -9.835   0.000  0.00  0.00    +0.000 A 
ATOM     18  C   UNL     1      17.452 -11.824   0.000  0.00  0.00    +0.000 A 
ATOM     19  C   UNL     1      18.313 -10.332   0.000  0.00  0.00    +0.000 A 
ATOM     20  C   UNL     1      18.313 -11.326   0.000  0.00  0.00    +0.000 A 
ENDBRANCH  11  15
BRANCH   4  21
ATOM     21  O   UNL     1      11.357 -10.356   0.000  0.00  0.00    +0.000 OA
BRANCH  21  29
ATOM     22  O   UNL     1      10.490  -8.867   0.000  0.00  0.00    +0.000 OA
ATOM     23  O   UNL     1       7.912 -10.369   0.000  0.00  0.00    +0.000 OA
ATOM     24  O   UNL     1       9.638 -11.357   0.000  0.00  0.00    +0.000 OA
ATOM     25  O   UNL     1       7.904  -8.380   0.000  0.00  0.00    +0.000 OA
ATOM     26  C   UNL     1       8.771  -9.869   0.000  0.00  0.00    +0.000 C 
ATOM     27  C   UNL     1       9.635 -10.363   0.000  0.00  0.00    +0.000 C 
ATOM     28  C   UNL     1       8.768  -8.874   0.000  0.00  0.00    +0.000 C 
ATOM     29  C   UNL     1      10.494  -9.862   0.000  0.00  0.00    +0.000 C 
ATOM     30  C   UNL     1       9.627  -8.373   0.000  0.00  0.00    +0.000 C 
ENDBRANCH  21  29
ENDBRANCH   4  21
BRANCH  12  31
ATOM     31  O   UNL     1      16.591  -8.343   0.000  0.00  0.00    +0.000 OA
BRANCH  31  32
ATOM     32  S   UNL     1      16.591  -7.348   0.000  0.00  0.00    +0.000 S 
ATOM     33  O   UNL     1      16.591  -6.354   0.000  0.00  0.00    +0.000 OA
ATOM     34  O   UNL     1      17.585  -7.348   0.000  0.00  0.00    +0.000 OA
ATOM     35  O   UNL     1      15.596  -7.348   0.000  0.00  0.00    +0.000 OA
ENDBRANCH  31  32
ENDBRANCH  12  31
TORSDOF 5
