REMARK  Name = 
REMARK  13 active torsions:
REMARK  status: ('A' for Active; 'I' for Inactive)
REMARK    1  A    between atoms: C_1  and  O_58
REMARK    2  A    between atoms: C_8  and  O_20
REMARK    3  A    between atoms: C_9  and  C_12
REMARK    4  A    between atoms: C_15  and  O_19
REMARK    5  A    between atoms: O_19  and  C_31
REMARK    6  A    between atoms: O_20  and  C_22
REMARK    7  A    between atoms: C_24  and  C_59
REMARK    8  A    between atoms: C_32  and  O_38
REMARK    9  A    between atoms: C_35  and  C_60
REMARK   10  A    between atoms: O_38  and  C_39
REMARK   11  A    between atoms: C_39  and  C_41
REMARK   12  A    between atoms: C_42  and  C_44
REMARK   13  A    between atoms: C_45  and  C_46
REMARK                            x       y       z     vdW  Elec       q    Type
REMARK                         _______ _______ _______ _____ _____    ______ ____
ROOT
ATOM      1  C   UNL     1      12.540 -11.797   0.000  0.00  0.00    +0.000 A 
ATOM      2  C   UNL     1      13.376 -12.279   0.000  0.00  0.00    +0.000 A 
ATOM      3  C   UNL     1      14.211 -11.797   0.000  0.00  0.00    +0.000 A 
ATOM      4  C   UNL     1      14.211 -10.832   0.000  0.00  0.00    +0.000 A 
ATOM      5  C   UNL     1      13.376 -10.350   0.000  0.00  0.00    +0.000 A 
ATOM      6  C   UNL     1      12.540 -10.832   0.000  0.00  0.00    +0.000 A 
ENDROOT
BRANCH   1  15
ATOM      7  C   UNL     1       8.230 -12.452   0.000  0.00  0.00    +0.000 A 
ATOM      8  C   UNL     1       8.230 -13.399   0.000  0.00  0.00    +0.000 A 
ATOM      9  C   UNL     1       9.049 -13.872   0.000  0.00  0.00    +0.000 A 
ATOM     10  C   UNL     1       9.869 -13.399   0.000  0.00  0.00    +0.000 A 
ATOM     11  C   UNL     1       9.869 -12.452   0.000  0.00  0.00    +0.000 A 
ATOM     12  C   UNL     1       9.049 -11.979   0.000  0.00  0.00    +0.000 A 
ATOM     13  C   UNL     1      10.689 -13.872   0.000  0.00  0.00    +0.000 A 
ATOM     14  C   UNL     1      11.508 -13.399   0.000  0.00  0.00    +0.000 A 
ATOM     15  C   UNL     1      11.508 -12.452   0.000  0.00  0.00    +0.000 A 
ATOM     16  O   UNL     1      10.689 -11.979   0.000  0.00  0.00    +0.000 OA
ATOM     17  O   UNL     1      10.689 -14.610   0.000  0.00  0.00    +0.000 OA
ATOM     18  O   UNL     1       9.049 -14.818   0.000  0.00  0.00    +0.000 OA
BRANCH   7  19
ATOM     19  O   UNL     1       7.534 -11.861   0.000  0.00  0.00    +0.000 OA
ATOM     20  C   UNL     1       6.676 -12.355   0.000  0.00  0.00    +0.000 C 
ENDBRANCH   7  19
BRANCH  14  21
ATOM     21  O   UNL     1      12.727 -14.033   0.000  0.00  0.00    +0.000 OA
BRANCH  21  23
ATOM     22  C   UNL     1      14.434 -12.955   0.000  0.00  0.00    +0.000 C 
ATOM     23  C   UNL     1      13.991 -13.723   0.000  0.00  0.00    +0.000 C 
ATOM     24  O   UNL     1      14.844 -13.479   0.000  0.00  0.00    +0.000 OA
ATOM     25  C   UNL     1      15.701 -13.723   0.000  0.00  0.00    +0.000 C 
ATOM     26  C   UNL     1      16.145 -12.955   0.000  0.00  0.00    +0.000 C 
ATOM     27  C   UNL     1      15.292 -13.198   0.000  0.00  0.00    +0.000 C 
ATOM     28  O   UNL     1      13.611 -13.175   0.000  0.00  0.00    +0.000 OA
ATOM     29  O   UNL     1      15.354 -12.499   0.000  0.00  0.00    +0.000 OA
ATOM     30  O   UNL     1      16.784 -13.324   0.000  0.00  0.00    +0.000 OA
BRANCH  25  31
ATOM     31  C   UNL     1      15.995 -14.153   0.000  0.00  0.00    +0.000 C 
ATOM     32  O   UNL     1      16.618 -14.153   0.000  0.00  0.00    +0.000 OA
ENDBRANCH  25  31
ENDBRANCH  21  23
ENDBRANCH  14  21
ENDBRANCH   1  15
BRANCH   4  33
ATOM     33  O   UNL     1      15.105 -10.316   0.000  0.00  0.00    +0.000 OA
BRANCH  33  35
ATOM     34  O   UNL     1      14.073  -8.582   0.000  0.00  0.00    +0.000 OA
ATOM     35  C   UNL     1      14.910  -9.065   0.000  0.00  0.00    +0.000 C 
ATOM     36  C   UNL     1      14.644  -8.136   0.000  0.00  0.00    +0.000 C 
ATOM     37  C   UNL     1      14.910  -7.202   0.000  0.00  0.00    +0.000 C 
ATOM     38  C   UNL     1      14.073  -6.718   0.000  0.00  0.00    +0.000 C 
ATOM     39  C   UNL     1      14.338  -7.648   0.000  0.00  0.00    +0.000 C 
ATOM     40  O   UNL     1      13.695  -6.065   0.000  0.00  0.00    +0.000 OA
ATOM     41  O   UNL     1      15.432  -6.900   0.000  0.00  0.00    +0.000 OA
BRANCH  39  42
ATOM     42  C   UNL     1      13.342  -7.326   0.000  0.00  0.00    +0.000 C 
ATOM     43  O   UNL     1      12.891  -7.777   0.000  0.00  0.00    +0.000 OA
ENDBRANCH  39  42
BRANCH  36  44
ATOM     44  O   UNL     1      15.260  -8.492   0.000  0.00  0.00    +0.000 OA
BRANCH  44  45
ATOM     45  C   UNL     1      16.625  -7.983   0.000  0.00  0.00    +0.000 C 
ATOM     46  O   UNL     1      16.625  -6.921   0.000  0.00  0.00    +0.000 OA
BRANCH  45  47
ATOM     47  C   UNL     1      17.694  -8.601   0.000  0.00  0.00    +0.000 C 
ATOM     48  C   UNL     1      18.763  -7.984   0.000  0.00  0.00    +0.000 C 
ATOM     49  C   UNL     1      19.831  -8.601   0.000  0.00  0.00    +0.000 C 
BRANCH  48  50
ATOM     50  C   UNL     1      18.763  -6.750   0.000  0.00  0.00    +0.000 C 
ATOM     51  C   UNL     1      19.831  -6.133   0.000  0.00  0.00    +0.000 C 
BRANCH  51  52
ATOM     52  C   UNL     1      19.831  -4.899   0.000  0.00  0.00    +0.000 C 
ATOM     53  C   UNL     1      20.933  -4.899   0.000  0.00  0.00    +0.000 C 
ATOM     54  C   UNL     1      21.483  -3.946   0.000  0.00  0.00    +0.000 C 
ATOM     55  C   UNL     1      20.933  -2.992   0.000  0.00  0.00    +0.000 C 
ATOM     56  C   UNL     1      19.831  -2.992   0.000  0.00  0.00    +0.000 C 
ATOM     57  C   UNL     1      19.281  -3.946   0.000  0.00  0.00    +0.000 C 
ATOM     58  O   UNL     1      18.770  -5.512   0.000  0.00  0.00    +0.000 OA
ATOM     59  C   UNL     1      22.209  -4.521   0.000  0.00  0.00    +0.000 C 
ATOM     60  O   UNL     1      20.568  -4.004   0.000  0.00  0.00    +0.000 OA
ATOM     61  O   UNL     1      21.506  -2.419   0.000  0.00  0.00    +0.000 OA
ATOM     62  C   UNL     1      18.531  -3.946   0.000  0.00  0.00    +0.000 C 
ATOM     63  C   UNL     1      21.450  -5.795   0.000  0.00  0.00    +0.000 C 
ENDBRANCH  51  52
ENDBRANCH  48  50
ENDBRANCH  45  47
ENDBRANCH  44  45
ENDBRANCH  36  44
ENDBRANCH  33  35
ENDBRANCH   4  33
TORSDOF 13
