REMARK  Name = 
REMARK  7 active torsions:
REMARK  status: ('A' for Active; 'I' for Inactive)
REMARK    1  A    between atoms: C_1  and  O_27
REMARK    2  A    between atoms: C_3  and  O_26
REMARK    3  A    between atoms: C_9  and  C_11
REMARK    4  A    between atoms: C_14  and  O_29
REMARK    5  A    between atoms: C_15  and  O_28
REMARK    6  A    between atoms: C_20  and  O_26
REMARK    7  A    between atoms: C_22  and  C_30
REMARK                            x       y       z     vdW  Elec       q    Type
REMARK                         _______ _______ _______ _____ _____    ______ ____
ROOT
ATOM      1  C   UNL     1      13.245  -6.143   0.000  0.00  0.00    +0.000 A 
ATOM      2  C   UNL     1      13.243  -7.175   0.000  0.00  0.00    +0.000 A 
ATOM      3  C   UNL     1      14.136  -7.693   0.000  0.00  0.00    +0.000 A 
ATOM      4  C   UNL     1      15.033  -7.183   0.000  0.00  0.00    +0.000 A 
ATOM      5  C   UNL     1      15.033  -6.147   0.000  0.00  0.00    +0.000 A 
ATOM      6  C   UNL     1      14.140  -5.629   0.000  0.00  0.00    +0.000 A 
ATOM      7  C   UNL     1      15.924  -7.697   0.000  0.00  0.00    +0.000 C 
ATOM      8  C   UNL     1      16.819  -7.183   0.000  0.00  0.00    +0.000 C 
ATOM      9  C   UNL     1      16.821  -6.151   0.000  0.00  0.00    +0.000 C 
ATOM     10  O   UNL     1      15.928  -5.632   0.000  0.00  0.00    +0.000 OA
ENDROOT
BRANCH   9  11
ATOM     11  C   UNL     1      17.715  -5.634   0.000  0.00  0.00    +0.000 A 
ATOM     12  C   UNL     1      18.617  -6.155   0.000  0.00  0.00    +0.000 A 
ATOM     13  C   UNL     1      19.518  -5.634   0.000  0.00  0.00    +0.000 A 
ATOM     14  C   UNL     1      19.518  -4.593   0.000  0.00  0.00    +0.000 A 
ATOM     15  C   UNL     1      18.617  -4.073   0.000  0.00  0.00    +0.000 A 
ATOM     16  C   UNL     1      17.715  -4.593   0.000  0.00  0.00    +0.000 A 
BRANCH  15  17
ATOM     17  O   UNL     1      18.617  -3.041   0.000  0.00  0.00    +0.000 OA
ATOM     18  C   UNL     1      19.309  -2.641   0.000  0.00  0.00    +0.000 C 
ENDBRANCH  15  17
BRANCH  14  19
ATOM     19  O   UNL     1      20.412  -4.077   0.000  0.00  0.00    +0.000 OA
ATOM     20  C   UNL     1      21.234  -4.552   0.000  0.00  0.00    +0.000 C 
ENDBRANCH  14  19
ENDBRANCH   9  11
BRANCH   1  21
ATOM     21  O   UNL     1      12.351  -5.627   0.000  0.00  0.00    +0.000 OA
ATOM     22  C   UNL     1      11.472  -6.135   0.000  0.00  0.00    +0.000 C 
ENDBRANCH   1  21
BRANCH   3  23
ATOM     23  O   UNL     1      14.130  -8.708   0.000  0.00  0.00    +0.000 OA
BRANCH  23  27
ATOM     24  C   UNL     1      10.332  -8.634   0.000  0.00  0.00    +0.000 C 
ATOM     25  C   UNL     1      10.971  -9.481   0.000  0.00  0.00    +0.000 C 
ATOM     26  C   UNL     1      11.894  -9.124   0.000  0.00  0.00    +0.000 C 
ATOM     27  C   UNL     1      12.784  -9.117   0.000  0.00  0.00    +0.000 C 
ATOM     28  O   UNL     1      12.139  -8.468   0.000  0.00  0.00    +0.000 OA
ATOM     29  C   UNL     1      11.331  -8.892   0.000  0.00  0.00    +0.000 C 
ATOM     30  O   UNL     1       9.407  -8.882   0.000  0.00  0.00    +0.000 OA
ATOM     31  O   UNL     1       9.864  -9.481   0.000  0.00  0.00    +0.000 OA
ATOM     32  O   UNL     1      12.355  -9.922   0.000  0.00  0.00    +0.000 OA
BRANCH  29  33
ATOM     33  C   UNL     1      10.940  -8.194   0.000  0.00  0.00    +0.000 C 
ATOM     34  O   UNL     1      10.441  -8.194   0.000  0.00  0.00    +0.000 OA
ENDBRANCH  29  33
ENDBRANCH  23  27
ENDBRANCH   3  23
TORSDOF 7
