REMARK  Name = 
REMARK  8 active torsions:
REMARK  status: ('A' for Active; 'I' for Inactive)
REMARK    1  A    between atoms: C_4  and  O_19
REMARK    2  A    between atoms: C_5  and  C_8
REMARK    3  A    between atoms: C_9  and  O_22
REMARK    4  A    between atoms: C_10  and  O_20
REMARK    5  A    between atoms: C_11  and  O_23
REMARK    6  A    between atoms: C_12  and  O_17
REMARK    7  A    between atoms: O_20  and  C_21
REMARK    8  A    between atoms: C_21  and  C_30
REMARK                            x       y       z     vdW  Elec       q    Type
REMARK                         _______ _______ _______ _____ _____    ______ ____
ROOT
ATOM      1  C   UNL     1      15.390  -5.598   0.000  0.00  0.00    +0.000 A 
ATOM      2  C   UNL     1      15.379  -4.589   0.000  0.00  0.00    +0.000 A 
ATOM      3  C   UNL     1      16.235  -6.093   0.000  0.00  0.00    +0.000 A 
ATOM      4  C   UNL     1      17.123  -5.606   0.000  0.00  0.00    +0.000 A 
ATOM      5  C   UNL     1      17.134  -4.580   0.000  0.00  0.00    +0.000 A 
ATOM      6  O   UNL     1      16.247  -4.074   0.000  0.00  0.00    +0.000 OA
ATOM      7  C   UNL     1      14.534  -4.093   0.000  0.00  0.00    +0.000 A 
ATOM      8  C   UNL     1      13.643  -4.587   0.000  0.00  0.00    +0.000 A 
ATOM      9  C   UNL     1      13.646  -5.624   0.000  0.00  0.00    +0.000 A 
ATOM     10  C   UNL     1      14.504  -6.113   0.000  0.00  0.00    +0.000 A 
ATOM     11  O   UNL     1      16.235  -7.102   0.000  0.00  0.00    +0.000 OA
ENDROOT
BRANCH   5  13
ATOM     12  C   UNL     1      18.855  -4.639   0.000  0.00  0.00    +0.000 A 
ATOM     13  C   UNL     1      18.008  -4.076   0.000  0.00  0.00    +0.000 A 
ATOM     14  C   UNL     1      19.771  -4.114   0.000  0.00  0.00    +0.000 A 
ATOM     15  C   UNL     1      19.760  -3.072   0.000  0.00  0.00    +0.000 A 
ATOM     16  C   UNL     1      18.886  -2.577   0.000  0.00  0.00    +0.000 A 
ATOM     17  C   UNL     1      18.047  -3.065   0.000  0.00  0.00    +0.000 A 
ATOM     18  O   UNL     1      20.765  -4.425   0.000  0.00  0.00    +0.000 OA
ATOM     19  C   UNL     1      21.369  -3.576   0.000  0.00  0.00    +0.000 C 
ATOM     20  O   UNL     1      20.765  -2.740   0.000  0.00  0.00    +0.000 OA
ENDBRANCH   5  13
BRANCH  10  21
ATOM     21  O   UNL     1      14.504  -7.123   0.000  0.00  0.00    +0.000 OA
ATOM     22  C   UNL     1      13.630  -7.627   0.000  0.00  0.00    +0.000 C 
ENDBRANCH  10  21
BRANCH   4  23
ATOM     23  O   UNL     1      17.997  -6.110   0.000  0.00  0.00    +0.000 OA
ATOM     24  C   UNL     1      18.758  -5.671   0.000  0.00  0.00    +0.000 C 
ENDBRANCH   4  23
BRANCH   7  25
ATOM     25  O   UNL     1      14.534  -3.084   0.000  0.00  0.00    +0.000 OA
ATOM     26  C   UNL     1      13.660  -2.580   0.000  0.00  0.00    +0.000 C 
ENDBRANCH   7  25
BRANCH   9  27
ATOM     27  O   UNL     1      12.772  -6.128   0.000  0.00  0.00    +0.000 OA
ATOM     28  C   UNL     1      11.899  -5.624   0.000  0.00  0.00    +0.000 C 
ENDBRANCH   9  27
BRANCH   8  29
ATOM     29  O   UNL     1      12.769  -4.083   0.000  0.00  0.00    +0.000 OA
BRANCH  29  30
ATOM     30  C   UNL     1      11.897  -4.586   0.000  0.00  0.00    +0.000 C 
BRANCH  30  31
ATOM     31  C   UNL     1      11.078  -4.114   0.000  0.00  0.00    +0.000 C 
ATOM     32  C   UNL     1      10.283  -4.573   0.000  0.00  0.00    +0.000 C 
ATOM     33  C   UNL     1       9.526  -4.136   0.000  0.00  0.00    +0.000 C 
ATOM     34  C   UNL     1      10.283  -5.477   0.000  0.00  0.00    +0.000 C 
ENDBRANCH  30  31
ENDBRANCH  29  30
ENDBRANCH   8  29
TORSDOF 8
