REMARK  Name = 
REMARK  7 active torsions:
REMARK  status: ('A' for Active; 'I' for Inactive)
REMARK    1  A    between atoms: C_1  and  O_30
REMARK    2  A    between atoms: C_3  and  O_19
REMARK    3  A    between atoms: C_9  and  C_11
REMARK    4  A    between atoms: C_13  and  O_31
REMARK    5  A    between atoms: C_15  and  O_29
REMARK    6  A    between atoms: O_19  and  C_23
REMARK    7  A    between atoms: C_25  and  C_32
REMARK                            x       y       z     vdW  Elec       q    Type
REMARK                         _______ _______ _______ _____ _____    ______ ____
ROOT
ATOM      1  C   UNL     1      13.171  -6.122   0.000  0.00  0.00    +0.000 A 
ATOM      2  C   UNL     1      13.171  -7.152   0.000  0.00  0.00    +0.000 A 
ATOM      3  C   UNL     1      14.063  -7.666   0.000  0.00  0.00    +0.000 A 
ATOM      4  C   UNL     1      14.955  -7.152   0.000  0.00  0.00    +0.000 A 
ATOM      5  C   UNL     1      14.955  -6.122   0.000  0.00  0.00    +0.000 A 
ATOM      6  C   UNL     1      14.063  -5.607   0.000  0.00  0.00    +0.000 A 
ATOM      7  C   UNL     1      15.847  -7.666   0.000  0.00  0.00    +0.000 C 
ATOM      8  C   UNL     1      16.739  -7.152   0.000  0.00  0.00    +0.000 C 
ATOM      9  C   UNL     1      16.739  -6.122   0.000  0.00  0.00    +0.000 C 
ATOM     10  O   UNL     1      15.847  -5.607   0.000  0.00  0.00    +0.000 OA
ATOM     11  O   UNL     1      17.631  -7.666   0.000  0.00  0.00    +0.000 OA
ENDROOT
BRANCH   9  12
ATOM     12  C   UNL     1      17.631  -5.607   0.000  0.00  0.00    +0.000 A 
ATOM     13  C   UNL     1      18.530  -6.126   0.000  0.00  0.00    +0.000 A 
ATOM     14  C   UNL     1      19.430  -5.607   0.000  0.00  0.00    +0.000 A 
ATOM     15  C   UNL     1      19.430  -4.568   0.000  0.00  0.00    +0.000 A 
ATOM     16  C   UNL     1      18.530  -4.049   0.000  0.00  0.00    +0.000 A 
ATOM     17  C   UNL     1      17.631  -4.568   0.000  0.00  0.00    +0.000 A 
ATOM     18  O   UNL     1      20.322  -4.053   0.000  0.00  0.00    +0.000 OA
BRANCH  16  19
ATOM     19  O   UNL     1      18.530  -3.019   0.000  0.00  0.00    +0.000 OA
ATOM     20  C   UNL     1      19.188  -2.639   0.000  0.00  0.00    +0.000 C 
ENDBRANCH  16  19
BRANCH  14  21
ATOM     21  O   UNL     1      20.322  -6.122   0.000  0.00  0.00    +0.000 OA
ATOM     22  C   UNL     1      21.060  -5.695   0.000  0.00  0.00    +0.000 C 
ENDBRANCH  14  21
ENDBRANCH   9  12
BRANCH   1  23
ATOM     23  O   UNL     1      12.279  -5.607   0.000  0.00  0.00    +0.000 OA
ATOM     24  C   UNL     1      11.537  -6.036   0.000  0.00  0.00    +0.000 C 
ENDBRANCH   1  23
BRANCH   3  25
ATOM     25  O   UNL     1      14.063  -8.694   0.000  0.00  0.00    +0.000 OA
BRANCH  25  29
ATOM     26  C   UNL     1      10.661  -9.145   0.000  0.00  0.00    +0.000 C 
ATOM     27  C   UNL     1      11.300  -9.989   0.000  0.00  0.00    +0.000 C 
ATOM     28  C   UNL     1      12.220  -9.631   0.000  0.00  0.00    +0.000 C 
ATOM     29  C   UNL     1      13.108  -9.621   0.000  0.00  0.00    +0.000 C 
ATOM     30  O   UNL     1      12.463  -8.976   0.000  0.00  0.00    +0.000 OA
ATOM     31  C   UNL     1      11.658  -9.401   0.000  0.00  0.00    +0.000 C 
ATOM     32  O   UNL     1       9.524  -9.450   0.000  0.00  0.00    +0.000 OA
ATOM     33  O   UNL     1      10.304 -10.037   0.000  0.00  0.00    +0.000 OA
ATOM     34  O   UNL     1      12.748 -10.516   0.000  0.00  0.00    +0.000 OA
BRANCH  31  35
ATOM     35  C   UNL     1      11.293  -8.645   0.000  0.00  0.00    +0.000 C 
ATOM     36  O   UNL     1      10.765  -8.355   0.000  0.00  0.00    +0.000 OA
ENDBRANCH  31  35
ENDBRANCH  25  29
ENDBRANCH   3  25
TORSDOF 7
