REMARK  Name = 
REMARK  8 active torsions:
REMARK  status: ('A' for Active; 'I' for Inactive)
REMARK    1  A    between atoms: C_1  and  O_35
REMARK    2  A    between atoms: C_2  and  O_29
REMARK    3  A    between atoms: C_3  and  O_18
REMARK    4  A    between atoms: C_9  and  C_11
REMARK    5  A    between atoms: C_13  and  O_37
REMARK    6  A    between atoms: C_14  and  O_31
REMARK    7  A    between atoms: C_15  and  O_33
REMARK    8  A    between atoms: O_18  and  C_23
REMARK                            x       y       z     vdW  Elec       q    Type
REMARK                         _______ _______ _______ _____ _____    ______ ____
ROOT
ATOM      1  C   UNL     1      12.516  -6.113   0.000  0.00  0.00    +0.000 A 
ATOM      2  C   UNL     1      12.516  -7.137   0.000  0.00  0.00    +0.000 A 
ATOM      3  C   UNL     1      13.402  -7.648   0.000  0.00  0.00    +0.000 A 
ATOM      4  C   UNL     1      14.289  -7.137   0.000  0.00  0.00    +0.000 A 
ATOM      5  C   UNL     1      14.289  -6.113   0.000  0.00  0.00    +0.000 A 
ATOM      6  C   UNL     1      13.402  -5.602   0.000  0.00  0.00    +0.000 A 
ATOM      7  C   UNL     1      15.175  -7.648   0.000  0.00  0.00    +0.000 C 
ATOM      8  C   UNL     1      16.061  -7.137   0.000  0.00  0.00    +0.000 C 
ATOM      9  C   UNL     1      16.061  -6.113   0.000  0.00  0.00    +0.000 C 
ATOM     10  O   UNL     1      15.175  -5.602   0.000  0.00  0.00    +0.000 OA
ATOM     11  O   UNL     1      15.175  -8.515   0.000  0.00  0.00    +0.000 OA
ENDROOT
BRANCH   9  12
ATOM     12  C   UNL     1      16.947  -5.602   0.000  0.00  0.00    +0.000 A 
ATOM     13  C   UNL     1      17.851  -6.123   0.000  0.00  0.00    +0.000 A 
ATOM     14  C   UNL     1      18.754  -5.602   0.000  0.00  0.00    +0.000 A 
ATOM     15  C   UNL     1      18.754  -4.559   0.000  0.00  0.00    +0.000 A 
ATOM     16  C   UNL     1      17.851  -4.037   0.000  0.00  0.00    +0.000 A 
ATOM     17  C   UNL     1      16.947  -4.559   0.000  0.00  0.00    +0.000 A 
BRANCH  15  18
ATOM     18  O   UNL     1      19.391  -4.020   0.000  0.00  0.00    +0.000 OA
ATOM     19  C   UNL     1      20.354  -4.367   0.000  0.00  0.00    +0.000 C 
ENDBRANCH  15  18
BRANCH  16  20
ATOM     20  O   UNL     1      17.845  -3.136   0.000  0.00  0.00    +0.000 OA
ATOM     21  C   UNL     1      16.959  -2.625   0.000  0.00  0.00    +0.000 C 
ENDBRANCH  16  20
BRANCH  14  22
ATOM     22  O   UNL     1      19.358  -6.189   0.000  0.00  0.00    +0.000 OA
ATOM     23  C   UNL     1      20.343  -5.910   0.000  0.00  0.00    +0.000 C 
ENDBRANCH  14  22
ENDBRANCH   9  12
BRANCH   2  24
ATOM     24  O   UNL     1      11.508  -7.588   0.000  0.00  0.00    +0.000 OA
ATOM     25  C   UNL     1      10.678  -6.989   0.000  0.00  0.00    +0.000 C 
ENDBRANCH   2  24
BRANCH   1  26
ATOM     26  O   UNL     1      11.666  -5.617   0.000  0.00  0.00    +0.000 OA
ATOM     27  C   UNL     1      10.780  -6.128   0.000  0.00  0.00    +0.000 C 
ENDBRANCH   1  26
BRANCH   3  28
ATOM     28  O   UNL     1      13.402  -8.671   0.000  0.00  0.00    +0.000 OA
BRANCH  28  33
ATOM     29  C   UNL     1      11.411  -9.744   0.000  0.00  0.00    +0.000 C 
ATOM     30  C   UNL     1      10.878 -10.667   0.000  0.00  0.00    +0.000 C 
ATOM     31  C   UNL     1      11.903 -10.374   0.000  0.00  0.00    +0.000 C 
ATOM     32  C   UNL     1      12.935 -10.644   0.000  0.00  0.00    +0.000 C 
ATOM     33  C   UNL     1      13.468  -9.721   0.000  0.00  0.00    +0.000 C 
ATOM     34  O   UNL     1      12.443 -10.014   0.000  0.00  0.00    +0.000 OA
ATOM     35  C   UNL     1      10.532  -9.775   0.000  0.00  0.00    +0.000 C 
ATOM     36  O   UNL     1      10.037 -10.415   0.000  0.00  0.00    +0.000 OA
ATOM     37  O   UNL     1      11.431 -11.068   0.000  0.00  0.00    +0.000 OA
ATOM     38  O   UNL     1      12.936 -11.387   0.000  0.00  0.00    +0.000 OA
ENDBRANCH  28  33
ENDBRANCH   3  28
TORSDOF 8
