REMARK  Name = 
REMARK  6 active torsions:
REMARK  status: ('A' for Active; 'I' for Inactive)
REMARK    1  A    between atoms: C_9  and  C_11
REMARK    2  A    between atoms: C_14  and  O_30
REMARK    3  A    between atoms: C_15  and  O_20
REMARK    4  A    between atoms: C_16  and  O_32
REMARK    5  A    between atoms: O_20  and  C_22
REMARK    6  A    between atoms: C_24  and  C_34
REMARK                            x       y       z     vdW  Elec       q    Type
REMARK                         _______ _______ _______ _____ _____    ______ ____
ROOT
ATOM      1  C   UNL     1       5.887  -8.236   0.000  0.00  0.00    +0.000 A 
ATOM      2  C   UNL     1       6.766  -8.732   0.000  0.00  0.00    +0.000 A 
ATOM      3  C   UNL     1       7.635  -8.219   0.000  0.00  0.00    +0.000 A 
ATOM      4  C   UNL     1       7.624  -7.209   0.000  0.00  0.00    +0.000 A 
ATOM      5  C   UNL     1       6.745  -6.714   0.000  0.00  0.00    +0.000 A 
ATOM      6  C   UNL     1       5.877  -7.227   0.000  0.00  0.00    +0.000 A 
ENDROOT
BRANCH   1  15
ATOM      7  C   UNL     1       1.627  -9.712   0.000  0.00  0.00    +0.000 A 
ATOM      8  C   UNL     1       2.479 -10.204   0.000  0.00  0.00    +0.000 A 
ATOM      9  C   UNL     1       3.331  -9.712   0.000  0.00  0.00    +0.000 A 
ATOM     10  C   UNL     1       3.331  -8.728   0.000  0.00  0.00    +0.000 A 
ATOM     11  C   UNL     1       2.479  -8.236   0.000  0.00  0.00    +0.000 A 
ATOM     12  C   UNL     1       1.627  -8.728   0.000  0.00  0.00    +0.000 A 
ATOM     13  C   UNL     1       4.183 -10.204   0.000  0.00  0.00    +0.000 C 
ATOM     14  C   UNL     1       5.035  -9.712   0.000  0.00  0.00    +0.000 C 
ATOM     15  C   UNL     1       5.035  -8.728   0.000  0.00  0.00    +0.000 C 
ATOM     16  O   UNL     1       4.183  -8.236   0.000  0.00  0.00    +0.000 OA
ATOM     17  O   UNL     1       4.183 -11.187   0.000  0.00  0.00    +0.000 OA
ATOM     18  O   UNL     1       0.775  -8.236   0.000  0.00  0.00    +0.000 OA
ATOM     19  O   UNL     1       2.479  -7.252   0.000  0.00  0.00    +0.000 OA
ENDBRANCH   1  15
BRANCH   3  20
ATOM     20  O   UNL     1       8.224  -7.431   0.000  0.00  0.00    +0.000 OA
ATOM     21  C   UNL     1       9.848  -7.625   0.000  0.00  0.00    +0.000 C 
ENDBRANCH   3  20
BRANCH   5  22
ATOM     22  O   UNL     1       5.828  -6.358   0.000  0.00  0.00    +0.000 OA
ATOM     23  C   UNL     1       5.577  -4.742   0.000  0.00  0.00    +0.000 C 
ENDBRANCH   5  22
BRANCH   4  24
ATOM     24  O   UNL     1       8.472  -6.708   0.000  0.00  0.00    +0.000 OA
BRANCH  24  26
ATOM     25  C   UNL     1       9.125  -5.217   0.000  0.00  0.00    +0.000 C 
ATOM     26  C   UNL     1       8.463  -5.915   0.000  0.00  0.00    +0.000 C 
ATOM     27  O   UNL     1       8.453  -4.953   0.000  0.00  0.00    +0.000 OA
ATOM     28  C   UNL     1       7.954  -4.131   0.000  0.00  0.00    +0.000 C 
ATOM     29  C   UNL     1       8.616  -3.432   0.000  0.00  0.00    +0.000 C 
ATOM     30  C   UNL     1       8.626  -4.394   0.000  0.00  0.00    +0.000 C 
ATOM     31  O   UNL     1       9.376  -4.114   0.000  0.00  0.00    +0.000 OA
ATOM     32  O   UNL     1       9.790  -5.270   0.000  0.00  0.00    +0.000 OA
ATOM     33  O   UNL     1       8.288  -2.524   0.000  0.00  0.00    +0.000 OA
BRANCH  28  34
ATOM     34  C   UNL     1       6.976  -4.026   0.000  0.00  0.00    +0.000 C 
ATOM     35  O   UNL     1       6.577  -3.127   0.000  0.00  0.00    +0.000 OA
ENDBRANCH  28  34
ENDBRANCH  24  26
ENDBRANCH   4  24
TORSDOF 6
