REMARK  Name = 
REMARK  6 active torsions:
REMARK  status: ('A' for Active; 'I' for Inactive)
REMARK    1  A    between atoms: C_2  and  C_7
REMARK    2  A    between atoms: C_6  and  O_22
REMARK    3  A    between atoms: C_12  and  O_19
REMARK    4  A    between atoms: O_19  and  C_30
REMARK    5  A    between atoms: O_22  and  S_23
REMARK    6  A    between atoms: C_32  and  C_33
REMARK                            x       y       z     vdW  Elec       q    Type
REMARK                         _______ _______ _______ _____ _____    ______ ____
ROOT
ATOM      1  C   UNL     1      15.414  -4.795   0.000  0.00  0.00    +0.000 A 
ATOM      2  O   UNL     1      14.502  -4.269   0.000  0.00  0.00    +0.000 OA
ATOM      3  C   UNL     1      13.591  -4.795   0.000  0.00  0.00    +0.000 A 
ATOM      4  C   UNL     1      13.591  -5.848   0.000  0.00  0.00    +0.000 A 
ATOM      5  C   UNL     1      14.502  -6.375   0.000  0.00  0.00    +0.000 A 
ATOM      6  C   UNL     1      15.414  -5.848   0.000  0.00  0.00    +0.000 A 
ATOM      7  C   UNL     1      12.679  -4.269   0.000  0.00  0.00    +0.000 A 
ATOM      8  C   UNL     1      11.767  -4.795   0.000  0.00  0.00    +0.000 A 
ATOM      9  C   UNL     1      11.767  -5.848   0.000  0.00  0.00    +0.000 A 
ATOM     10  C   UNL     1      12.679  -6.375   0.000  0.00  0.00    +0.000 A 
ATOM     11  O   UNL     1      14.502  -7.218   0.000  0.00  0.00    +0.000 OA
ATOM     12  O   UNL     1      10.855  -4.269   0.000  0.00  0.00    +0.000 OA
ATOM     13  O   UNL     1      12.679  -7.302   0.000  0.00  0.00    +0.000 OA
ENDROOT
BRANCH   1  15
ATOM     14  C   UNL     1      17.238  -4.795   0.000  0.00  0.00    +0.000 A 
ATOM     15  C   UNL     1      16.326  -4.269   0.000  0.00  0.00    +0.000 A 
ATOM     16  C   UNL     1      16.326  -3.216   0.000  0.00  0.00    +0.000 A 
ATOM     17  C   UNL     1      17.238  -2.690   0.000  0.00  0.00    +0.000 A 
ATOM     18  C   UNL     1      18.149  -3.216   0.000  0.00  0.00    +0.000 A 
ATOM     19  C   UNL     1      18.149  -4.269   0.000  0.00  0.00    +0.000 A 
ATOM     20  O   UNL     1      18.905  -2.780   0.000  0.00  0.00    +0.000 OA
BRANCH  19  21
ATOM     21  O   UNL     1      19.015  -5.037   0.000  0.00  0.00    +0.000 OA
BRANCH  21  22
ATOM     22  S   UNL     1      19.777  -5.040   0.000  0.00  0.00    +0.000 S 
ATOM     23  O   UNL     1      20.619  -5.044   0.000  0.00  0.00    +0.000 OA
ATOM     24  O   UNL     1      19.773  -5.851   0.000  0.00  0.00    +0.000 OA
ATOM     25  O   UNL     1      19.781  -4.163   0.000  0.00  0.00    +0.000 OA
ENDBRANCH  21  22
ENDBRANCH  19  21
ENDBRANCH   1  15
BRANCH   6  26
ATOM     26  O   UNL     1      16.178  -6.417   0.000  0.00  0.00    +0.000 OA
BRANCH  26  30
ATOM     27  C   UNL     1      14.091  -8.553   0.000  0.00  0.00    +0.000 C 
ATOM     28  C   UNL     1      15.003  -9.081   0.000  0.00  0.00    +0.000 C 
ATOM     29  C   UNL     1      15.752  -8.341   0.000  0.00  0.00    +0.000 C 
ATOM     30  C   UNL     1      16.774  -8.086   0.000  0.00  0.00    +0.000 C 
ATOM     31  O   UNL     1      15.863  -7.559   0.000  0.00  0.00    +0.000 OA
ATOM     32  C   UNL     1      15.113  -8.299   0.000  0.00  0.00    +0.000 C 
ATOM     33  O   UNL     1      13.865  -9.396   0.000  0.00  0.00    +0.000 OA
ATOM     34  O   UNL     1      14.342  -9.080   0.000  0.00  0.00    +0.000 OA
ATOM     35  O   UNL     1      15.970  -9.158   0.000  0.00  0.00    +0.000 OA
BRANCH  32  36
ATOM     36  C   UNL     1      14.566  -7.751   0.000  0.00  0.00    +0.000 C 
ATOM     37  O   UNL     1      13.859  -7.750   0.000  0.00  0.00    +0.000 OA
ENDBRANCH  32  36
ENDBRANCH  26  30
ENDBRANCH   6  26
TORSDOF 6
