REMARK  Name = 
REMARK  5 active torsions:
REMARK  status: ('A' for Active; 'I' for Inactive)
REMARK    1  A    between atoms: O_2  and  C_18
REMARK    2  A    between atoms: O_2  and  C_26
REMARK    3  A    between atoms: C_19  and  C_31
REMARK    4  A    between atoms: C_21  and  C_32
REMARK    5  A    between atoms: C_27  and  C_34
REMARK                            x       y       z     vdW  Elec       q    Type
REMARK                         _______ _______ _______ _____ _____    ______ ____
ROOT
ATOM      1  O   UNL     1       9.735  -6.850   0.000  0.00  0.00    +0.000 OA
ATOM      2  O   UNL     1      13.241  -6.822   0.000  0.00  0.00    +0.000 OA
ATOM      3  O   UNL     1      10.625  -4.309   0.000  0.00  0.00    +0.000 OA
ATOM      4  O   UNL     1      14.996  -6.833   0.000  0.00  0.00    +0.000 OA
ATOM      5  C   UNL     1      12.354  -8.344   0.000  0.00  0.00    +0.000 A 
ATOM      6  C   UNL     1      13.241  -8.874   0.000  0.00  0.00    +0.000 C 
ATOM      7  C   UNL     1      11.496  -6.857   0.000  0.00  0.00    +0.000 A 
ATOM      8  C   UNL     1      11.512  -5.824   0.000  0.00  0.00    +0.000 C 
ATOM      9  C   UNL     1      12.354  -7.353   0.000  0.00  0.00    +0.000 A 
ATOM     10  C   UNL     1      10.621  -5.301   0.000  0.00  0.00    +0.000 C 
ATOM     11  C   UNL     1      11.496  -8.840   0.000  0.00  0.00    +0.000 A 
ATOM     12  C   UNL     1       9.727  -5.817   0.000  0.00  0.00    +0.000 C 
ATOM     13  C   UNL     1      10.637  -7.353   0.000  0.00  0.00    +0.000 A 
ATOM     14  C   UNL     1      14.139  -8.365   0.000  0.00  0.00    +0.000 C 
ATOM     15  C   UNL     1      10.637  -8.344   0.000  0.00  0.00    +0.000 A 
ATOM     16  C   UNL     1      14.139  -7.332   0.000  0.00  0.00    +0.000 C 
ENDROOT
BRANCH   6  19
ATOM     17  O   UNL     1      14.924 -11.869   0.000  0.00  0.00    +0.000 OA
ATOM     18  O   UNL     1      13.195 -12.841   0.000  0.00  0.00    +0.000 OA
ATOM     19  C   UNL     1      13.229  -9.866   0.000  0.00  0.00    +0.000 A 
ATOM     20  C   UNL     1      14.082 -10.372   0.000  0.00  0.00    +0.000 A 
ATOM     21  C   UNL     1      12.365 -10.352   0.000  0.00  0.00    +0.000 A 
ATOM     22  C   UNL     1      14.071 -11.363   0.000  0.00  0.00    +0.000 A 
ATOM     23  C   UNL     1      12.354 -11.343   0.000  0.00  0.00    +0.000 A 
ATOM     24  C   UNL     1      13.207 -11.849   0.000  0.00  0.00    +0.000 A 
ENDBRANCH   6  19
BRANCH  12  27
ATOM     25  O   UNL     1       7.998  -2.849   0.000  0.00  0.00    +0.000 OA
ATOM     26  O   UNL     1       6.284  -3.848   0.000  0.00  0.00    +0.000 OA
ATOM     27  C   UNL     1       8.866  -5.325   0.000  0.00  0.00    +0.000 A 
ATOM     28  C   UNL     1       8.862  -4.333   0.000  0.00  0.00    +0.000 A 
ATOM     29  C   UNL     1       8.009  -5.824   0.000  0.00  0.00    +0.000 A 
ATOM     30  C   UNL     1       8.002  -3.841   0.000  0.00  0.00    +0.000 A 
ATOM     31  C   UNL     1       7.149  -5.331   0.000  0.00  0.00    +0.000 A 
ATOM     32  C   UNL     1       7.145  -4.340   0.000  0.00  0.00    +0.000 A 
ENDBRANCH  12  27
BRANCH  11  33
ATOM     33  O   UNL     1      11.496  -9.832   0.000  0.00  0.00    +0.000 OA
BRANCH  33  41
ATOM     34  O   UNL     1       9.778  -9.832   0.000  0.00  0.00    +0.000 OA
ATOM     35  O   UNL     1       9.778 -12.806   0.000  0.00  0.00    +0.000 OA
ATOM     36  O   UNL     1      11.496 -11.815   0.000  0.00  0.00    +0.000 OA
ATOM     37  O   UNL     1       8.061 -11.815   0.000  0.00  0.00    +0.000 OA
ATOM     38  C   UNL     1       9.778 -11.815   0.000  0.00  0.00    +0.000 C 
ATOM     39  C   UNL     1      10.637 -11.319   0.000  0.00  0.00    +0.000 C 
ATOM     40  C   UNL     1       8.920 -11.319   0.000  0.00  0.00    +0.000 C 
ATOM     41  C   UNL     1      10.637 -10.327   0.000  0.00  0.00    +0.000 C 
ATOM     42  C   UNL     1       8.920 -10.327   0.000  0.00  0.00    +0.000 C 
BRANCH  42  44
ATOM     43  O   UNL     1       7.202 -10.327   0.000  0.00  0.00    +0.000 OA
ATOM     44  C   UNL     1       8.061  -9.832   0.000  0.00  0.00    +0.000 C 
ENDBRANCH  42  44
ENDBRANCH  33  41
ENDBRANCH  11  33
TORSDOF 5
