REMARK  Name = 
REMARK  6 active torsions:
REMARK  status: ('A' for Active; 'I' for Inactive)
REMARK    1  A    between atoms: O_2  and  C_14
REMARK    2  A    between atoms: O_2  and  C_21
REMARK    3  A    between atoms: O_3  and  C_12
REMARK    4  A    between atoms: O_3  and  C_27
REMARK    5  A    between atoms: C_20  and  C_23
REMARK    6  A    between atoms: C_27  and  C_31
REMARK                            x       y       z     vdW  Elec       q    Type
REMARK                         _______ _______ _______ _____ _____    ______ ____
ROOT
ATOM      1  O   UNL     1      14.350  -8.764   0.000  0.00  0.00    +0.000 OA
ENDROOT
BRANCH   1   8
ATOM      2  O   UNL     1      16.101 -11.784   0.000  0.00  0.00    +0.000 OA
ATOM      3  O   UNL     1      12.627 -11.750   0.000  0.00  0.00    +0.000 OA
ATOM      4  C   UNL     1      16.101  -9.725   0.000  0.00  0.00    +0.000 C 
ATOM      5  C   UNL     1      17.003 -10.236   0.000  0.00  0.00    +0.000 C 
ATOM      6  C   UNL     1      15.212 -10.257   0.000  0.00  0.00    +0.000 A 
ATOM      7  C   UNL     1      17.003 -11.273   0.000  0.00  0.00    +0.000 C 
ATOM      8  C   UNL     1      14.350  -9.760   0.000  0.00  0.00    +0.000 A 
ATOM      9  C   UNL     1      15.212 -11.252   0.000  0.00  0.00    +0.000 A 
ATOM     10  C   UNL     1      13.488 -10.257   0.000  0.00  0.00    +0.000 A 
ATOM     11  C   UNL     1      14.350 -11.750   0.000  0.00  0.00    +0.000 A 
ATOM     12  C   UNL     1      13.488 -11.252   0.000  0.00  0.00    +0.000 A 
BRANCH   7  15
ATOM     13  O   UNL     1      18.715 -14.265   0.000  0.00  0.00    +0.000 OA
ATOM     14  O   UNL     1      20.442 -13.276   0.000  0.00  0.00    +0.000 OA
ATOM     15  C   UNL     1      17.863 -11.774   0.000  0.00  0.00    +0.000 A 
ATOM     16  C   UNL     1      17.859 -12.769   0.000  0.00  0.00    +0.000 A 
ATOM     17  C   UNL     1      18.727 -11.280   0.000  0.00  0.00    +0.000 A 
ATOM     18  C   UNL     1      18.719 -13.270   0.000  0.00  0.00    +0.000 A 
ATOM     19  C   UNL     1      19.586 -11.780   0.000  0.00  0.00    +0.000 A 
ATOM     20  C   UNL     1      19.582 -12.775   0.000  0.00  0.00    +0.000 A 
ENDBRANCH   7  15
ENDBRANCH   1   8
BRANCH   1  26
ATOM     21  O   UNL     1      12.627  -8.764   0.000  0.00  0.00    +0.000 OA
ATOM     22  O   UNL     1      12.627  -5.779   0.000  0.00  0.00    +0.000 OA
ATOM     23  O   UNL     1      10.903  -6.774   0.000  0.00  0.00    +0.000 OA
ATOM     24  C   UNL     1      13.488  -7.272   0.000  0.00  0.00    +0.000 C 
ATOM     25  C   UNL     1      12.627  -6.774   0.000  0.00  0.00    +0.000 C 
ATOM     26  C   UNL     1      13.488  -8.267   0.000  0.00  0.00    +0.000 C 
ATOM     27  C   UNL     1      11.765  -7.272   0.000  0.00  0.00    +0.000 C 
ATOM     28  C   UNL     1      11.765  -8.267   0.000  0.00  0.00    +0.000 C 
BRANCH  24  29
ATOM     29  O   UNL     1      14.350  -6.774   0.000  0.00  0.00    +0.000 OA
BRANCH  29  31
ATOM     30  O   UNL     1      13.488  -5.282   0.000  0.00  0.00    +0.000 OA
ATOM     31  C   UNL     1      14.350  -5.779   0.000  0.00  0.00    +0.000 C 
BRANCH  31  33
ATOM     32  O   UNL     1      17.797  -3.789   0.000  0.00  0.00    +0.000 OA
ATOM     33  C   UNL     1      15.212  -5.282   0.000  0.00  0.00    +0.000 A 
ATOM     34  C   UNL     1      16.074  -5.779   0.000  0.00  0.00    +0.000 A 
ATOM     35  C   UNL     1      15.212  -4.287   0.000  0.00  0.00    +0.000 A 
ATOM     36  C   UNL     1      16.935  -5.282   0.000  0.00  0.00    +0.000 A 
ATOM     37  C   UNL     1      16.074  -3.789   0.000  0.00  0.00    +0.000 A 
ATOM     38  C   UNL     1      16.935  -4.287   0.000  0.00  0.00    +0.000 A 
ENDBRANCH  31  33
ENDBRANCH  29  31
ENDBRANCH  24  29
ENDBRANCH   1  26
TORSDOF 6
