REMARK  Name = 
REMARK  7 active torsions:
REMARK  status: ('A' for Active; 'I' for Inactive)
REMARK    1  A    between atoms: O_2  and  C_17
REMARK    2  A    between atoms: O_2  and  C_23
REMARK    3  A    between atoms: O_7  and  C_18
REMARK    4  A    between atoms: O_7  and  C_31
REMARK    5  A    between atoms: C_16  and  C_22
REMARK    6  A    between atoms: C_20  and  C_25
REMARK    7  A    between atoms: C_31  and  C_35
REMARK                            x       y       z     vdW  Elec       q    Type
REMARK                         _______ _______ _______ _____ _____    ______ ____
ROOT
ATOM      1  O   UNL     1      11.066  -5.999   0.000  0.00  0.00    +0.000 OA
ATOM      2  O   UNL     1       7.553  -5.934   0.000  0.00  0.00    +0.000 OA
ATOM      3  C   UNL     1      11.911  -7.502   0.000  0.00  0.00    +0.000 C 
ATOM      4  C   UNL     1      11.043  -7.989   0.000  0.00  0.00    +0.000 C 
ATOM      5  C   UNL     1      11.922  -6.506   0.000  0.00  0.00    +0.000 C 
ATOM      6  C   UNL     1      10.187  -7.482   0.000  0.00  0.00    +0.000 A 
ATOM      7  C   UNL     1       9.291  -8.003   0.000  0.00  0.00    +0.000 A 
ATOM      8  C   UNL     1      10.199  -6.486   0.000  0.00  0.00    +0.000 A 
ATOM      9  C   UNL     1       8.396  -7.482   0.000  0.00  0.00    +0.000 A 
ATOM     10  C   UNL     1       9.315  -5.944   0.000  0.00  0.00    +0.000 A 
ATOM     11  C   UNL     1       8.408  -6.445   0.000  0.00  0.00    +0.000 A 
ENDROOT
BRANCH   5  14
ATOM     12  O   UNL     1      15.370  -6.546   0.000  0.00  0.00    +0.000 OA
ATOM     13  O   UNL     1      15.393  -4.556   0.000  0.00  0.00    +0.000 OA
ATOM     14  C   UNL     1      12.790  -6.019   0.000  0.00  0.00    +0.000 A 
ATOM     15  C   UNL     1      13.646  -6.526   0.000  0.00  0.00    +0.000 A 
ATOM     16  C   UNL     1      12.802  -5.023   0.000  0.00  0.00    +0.000 A 
ATOM     17  C   UNL     1      14.514  -6.039   0.000  0.00  0.00    +0.000 A 
ATOM     18  C   UNL     1      13.669  -4.536   0.000  0.00  0.00    +0.000 A 
ATOM     19  C   UNL     1      14.526  -5.043   0.000  0.00  0.00    +0.000 A 
ENDBRANCH   5  14
BRANCH   7  20
ATOM     20  O   UNL     1       9.291  -8.999   0.000  0.00  0.00    +0.000 OA
BRANCH  20  29
ATOM     21  O   UNL     1       7.567  -8.999   0.000  0.00  0.00    +0.000 OA
ATOM     22  O   UNL     1       7.567 -11.985   0.000  0.00  0.00    +0.000 OA
ATOM     23  O   UNL     1       5.844 -10.989   0.000  0.00  0.00    +0.000 OA
ATOM     24  O   UNL     1       9.291 -10.989   0.000  0.00  0.00    +0.000 OA
ATOM     25  C   UNL     1       7.567 -10.989   0.000  0.00  0.00    +0.000 C 
ATOM     26  C   UNL     1       6.706 -10.492   0.000  0.00  0.00    +0.000 C 
ATOM     27  C   UNL     1       8.430 -10.492   0.000  0.00  0.00    +0.000 C 
ATOM     28  C   UNL     1       6.706  -9.496   0.000  0.00  0.00    +0.000 C 
ATOM     29  C   UNL     1       8.430  -9.496   0.000  0.00  0.00    +0.000 C 
BRANCH  28  31
ATOM     30  O   UNL     1       4.982  -9.496   0.000  0.00  0.00    +0.000 OA
ATOM     31  C   UNL     1       5.844  -8.999   0.000  0.00  0.00    +0.000 C 
ENDBRANCH  28  31
ENDBRANCH  20  29
ENDBRANCH   7  20
BRANCH   3  32
ATOM     32  O   UNL     1      12.767  -8.009   0.000  0.00  0.00    +0.000 OA
BRANCH  32  34
ATOM     33  O   UNL     1      11.888  -9.492   0.000  0.00  0.00    +0.000 OA
ATOM     34  C   UNL     1      12.756  -9.004   0.000  0.00  0.00    +0.000 C 
BRANCH  34  35
ATOM     35  C   UNL     1      13.612  -9.512   0.000  0.00  0.00    +0.000 A 
ATOM     36  C   UNL     1      13.600 -10.507   0.000  0.00  0.00    +0.000 A 
ATOM     37  C   UNL     1      14.479  -9.024   0.000  0.00  0.00    +0.000 A 
ATOM     38  C   UNL     1      14.457 -11.015   0.000  0.00  0.00    +0.000 A 
ATOM     39  C   UNL     1      15.336  -9.532   0.000  0.00  0.00    +0.000 A 
ATOM     40  C   UNL     1      15.324 -10.527   0.000  0.00  0.00    +0.000 A 
ENDBRANCH  34  35
ENDBRANCH  32  34
ENDBRANCH   3  32
TORSDOF 7
