REMARK  Name = 14309754
REMARK  6 active torsions:
REMARK  status: ('A' for Active; 'I' for Inactive)
REMARK    1  A    between atoms: O_1  and  C_16
REMARK    2  A    between atoms: O_1  and  C_18
REMARK    3  A    between atoms: O_5  and  C_23
REMARK    4  A    between atoms: O_5  and  C_28
REMARK    5  A    between atoms: C_25  and  C_27
REMARK    6  A    between atoms: C_35  and  C_37
REMARK                            x       y       z     vdW  Elec       q    Type
REMARK                         _______ _______ _______ _____ _____    ______ ____
ROOT
ATOM      1  O   UNL     1       5.976  -0.230   0.000  0.00  0.00    +0.000 OA
ATOM      2  O   UNL     1       8.120  -1.467   0.000  0.00  0.00    +0.000 OA
ATOM      3  O   UNL     1       8.120   0.183   0.000  0.00  0.00    +0.000 OA
ATOM      4  C   UNL     1       6.691  -1.467   0.000  0.00  0.00    +0.000 C 
ATOM      5  C   UNL     1       7.405  -1.055   0.000  0.00  0.00    +0.000 C 
ATOM      6  C   UNL     1       7.405  -0.230   0.000  0.00  0.00    +0.000 C 
ATOM      7  C   UNL     1       5.976  -1.055   0.000  0.00  0.00    +0.000 C 
ATOM      8  C   UNL     1       6.691   0.183   0.000  0.00  0.00    +0.000 C 
ENDROOT
BRANCH   8  11
ATOM      9  O   UNL     1       7.405   1.420   0.000  0.00  0.00    +0.000 OA
ATOM     10  O   UNL     1       5.976   1.420   0.000  0.00  0.00    +0.000 OA
ATOM     11  C   UNL     1       6.691   1.008   0.000  0.00  0.00    +0.000 C 
ENDBRANCH   8  11
BRANCH   4  12
ATOM     12  O   UNL     1       6.691  -2.292   0.000  0.00  0.00    +0.000 OA
BRANCH  12  17
ATOM     13  O   UNL     1       5.262  -2.292   0.000  0.00  0.00    +0.000 OA
ATOM     14  O   UNL     1       6.691  -3.942   0.000  0.00  0.00    +0.000 OA
ATOM     15  O   UNL     1       5.262  -4.767   0.000  0.00  0.00    +0.000 OA
ATOM     16  O   UNL     1       3.833  -3.942   0.000  0.00  0.00    +0.000 OA
ATOM     17  C   UNL     1       5.976  -2.705   0.000  0.00  0.00    +0.000 C 
ATOM     18  C   UNL     1       5.976  -3.530   0.000  0.00  0.00    +0.000 C 
ATOM     19  C   UNL     1       5.262  -3.942   0.000  0.00  0.00    +0.000 C 
ATOM     20  C   UNL     1       4.547  -3.530   0.000  0.00  0.00    +0.000 C 
ATOM     21  C   UNL     1       4.547  -2.705   0.000  0.00  0.00    +0.000 C 
ATOM     22  C   UNL     1       3.833  -2.292   0.000  0.00  0.00    +0.000 C 
ENDBRANCH  12  17
ENDBRANCH   4  12
BRANCH   7  23
ATOM     23  O   UNL     1       5.262  -1.467   0.000  0.00  0.00    +0.000 OA
BRANCH  23  27
ATOM     24  O   UNL     1       3.798   1.050   0.000  0.00  0.00    +0.000 OA
ATOM     25  O   UNL     1       2.342  -1.445   0.000  0.00  0.00    +0.000 OA
ATOM     26  O   UNL     1       1.650  -0.179   0.000  0.00  0.00    +0.000 OA
ATOM     27  C   UNL     1       4.547  -1.055   0.000  0.00  0.00    +0.000 A 
ATOM     28  C   UNL     1       4.544  -0.196   0.000  0.00  0.00    +0.000 A 
ATOM     29  C   UNL     1       3.802  -1.482   0.000  0.00  0.00    +0.000 A 
ATOM     30  C   UNL     1       3.795   0.226   0.000  0.00  0.00    +0.000 A 
ATOM     31  C   UNL     1       3.062  -1.044   0.000  0.00  0.00    +0.000 A 
ATOM     32  C   UNL     1       3.079  -0.184   0.000  0.00  0.00    +0.000 A 
ATOM     33  C   UNL     1       2.366   0.231   0.000  0.00  0.00    +0.000 A 
ATOM     34  C   UNL     1       3.085   1.466   0.000  0.00  0.00    +0.000 A 
ATOM     35  C   UNL     1       2.369   1.056   0.000  0.00  0.00    +0.000 A 
BRANCH  34  37
ATOM     36  O   UNL     1       3.098   4.766   0.000  0.00  0.00    +0.000 OA
ATOM     37  C   UNL     1       3.088   2.291   0.000  0.00  0.00    +0.000 A 
ATOM     38  C   UNL     1       3.804   2.700   0.000  0.00  0.00    +0.000 A 
ATOM     39  C   UNL     1       2.376   2.706   0.000  0.00  0.00    +0.000 A 
ATOM     40  C   UNL     1       3.808   3.525   0.000  0.00  0.00    +0.000 A 
ATOM     41  C   UNL     1       2.379   3.531   0.000  0.00  0.00    +0.000 A 
ATOM     42  C   UNL     1       3.095   3.941   0.000  0.00  0.00    +0.000 A 
ENDBRANCH  34  37
ENDBRANCH  23  27
ENDBRANCH   7  23
TORSDOF 6
