REMARK  Name = 14757905
REMARK  14 active torsions:
REMARK  status: ('A' for Active; 'I' for Inactive)
REMARK    1  A    between atoms: O_2  and  C_26
REMARK    2  A    between atoms: O_2  and  C_30
REMARK    3  A    between atoms: O_4  and  C_22
REMARK    4  A    between atoms: O_4  and  C_34
REMARK    5  A    between atoms: O_6  and  C_29
REMARK    6  A    between atoms: O_6  and  C_33
REMARK    7  A    between atoms: O_16  and  C_49
REMARK    8  A    between atoms: O_18  and  C_54
REMARK    9  A    between atoms: O_19  and  C_55
REMARK   10  A    between atoms: C_21  and  C_30
REMARK   11  A    between atoms: C_31  and  C_32
REMARK   12  A    between atoms: C_34  and  C_37
REMARK   13  A    between atoms: C_35  and  C_39
REMARK   14  A    between atoms: C_41  and  C_48
REMARK                            x       y       z     vdW  Elec       q    Type
REMARK                         _______ _______ _______ _____ _____    ______ ____
ROOT
ATOM      1  O   UNL     1       5.665   1.316   0.000  0.00  0.00    +0.000 OA
ATOM      2  O   UNL     1       7.809   0.078   0.000  0.00  0.00    +0.000 OA
ATOM      3  O   UNL     1       7.809   1.728   0.000  0.00  0.00    +0.000 OA
ATOM      4  C   UNL     1       5.665   0.491   0.000  0.00  0.00    +0.000 C 
ATOM      5  C   UNL     1       6.380   0.078   0.000  0.00  0.00    +0.000 C 
ATOM      6  C   UNL     1       7.094   0.491   0.000  0.00  0.00    +0.000 C 
ATOM      7  C   UNL     1       7.094   1.316   0.000  0.00  0.00    +0.000 C 
ATOM      8  C   UNL     1       6.380   1.728   0.000  0.00  0.00    +0.000 C 
ENDROOT
BRANCH   5   9
ATOM      9  O   UNL     1       6.380  -0.747   0.000  0.00  0.00    +0.000 OA
BRANCH   9  11
ATOM     10  O   UNL     1       7.809  -0.747   0.000  0.00  0.00    +0.000 OA
ATOM     11  C   UNL     1       7.094  -1.159   0.000  0.00  0.00    +0.000 C 
BRANCH  11  12
ATOM     12  C   UNL     1       7.094  -1.984   0.000  0.00  0.00    +0.000 C 
ATOM     13  C   UNL     1       7.809  -2.397   0.000  0.00  0.00    +0.000 C 
BRANCH  13  15
ATOM     14  O   UNL     1       7.809  -5.697   0.000  0.00  0.00    +0.000 OA
ATOM     15  C   UNL     1       7.809  -3.222   0.000  0.00  0.00    +0.000 A 
ATOM     16  C   UNL     1       7.094  -3.634   0.000  0.00  0.00    +0.000 A 
ATOM     17  C   UNL     1       8.523  -3.634   0.000  0.00  0.00    +0.000 A 
ATOM     18  C   UNL     1       8.523  -4.459   0.000  0.00  0.00    +0.000 A 
ATOM     19  C   UNL     1       7.094  -4.459   0.000  0.00  0.00    +0.000 A 
ATOM     20  C   UNL     1       7.809  -4.872   0.000  0.00  0.00    +0.000 A 
BRANCH  18  21
ATOM     21  O   UNL     1       9.238  -4.872   0.000  0.00  0.00    +0.000 OA
ATOM     22  C   UNL     1       9.952  -4.459   0.000  0.00  0.00    +0.000 C 
ENDBRANCH  18  21
BRANCH  19  23
ATOM     23  O   UNL     1       6.380  -4.872   0.000  0.00  0.00    +0.000 OA
ATOM     24  C   UNL     1       6.380  -5.697   0.000  0.00  0.00    +0.000 C 
ENDBRANCH  19  23
ENDBRANCH  13  15
ENDBRANCH  11  12
ENDBRANCH   9  11
ENDBRANCH   5   9
BRANCH   8  25
ATOM     25  O   UNL     1       6.380   2.553   0.000  0.00  0.00    +0.000 OA
BRANCH  25  29
ATOM     26  O   UNL     1       4.951   4.203   0.000  0.00  0.00    +0.000 OA
ATOM     27  O   UNL     1       3.508   1.700   0.000  0.00  0.00    +0.000 OA
ATOM     28  O   UNL     1       2.038   4.223   0.000  0.00  0.00    +0.000 OA
ATOM     29  C   UNL     1       5.665   2.966   0.000  0.00  0.00    +0.000 A 
ATOM     30  C   UNL     1       5.665   3.791   0.000  0.00  0.00    +0.000 A 
ATOM     31  C   UNL     1       4.951   2.553   0.000  0.00  0.00    +0.000 A 
ATOM     32  C   UNL     1       4.236   2.966   0.000  0.00  0.00    +0.000 A 
ATOM     33  C   UNL     1       4.236   3.791   0.000  0.00  0.00    +0.000 A 
ATOM     34  C   UNL     1       3.499   2.525   0.000  0.00  0.00    +0.000 A 
ATOM     35  C   UNL     1       3.499   4.232   0.000  0.00  0.00    +0.000 A 
ATOM     36  C   UNL     1       2.751   2.949   0.000  0.00  0.00    +0.000 A 
ATOM     37  C   UNL     1       2.751   3.808   0.000  0.00  0.00    +0.000 A 
BRANCH  30  39
ATOM     38  O   UNL     1       8.523   5.441   0.000  0.00  0.00    +0.000 OA
ATOM     39  C   UNL     1       6.380   4.203   0.000  0.00  0.00    +0.000 A 
ATOM     40  C   UNL     1       7.094   3.791   0.000  0.00  0.00    +0.000 A 
ATOM     41  C   UNL     1       6.380   5.028   0.000  0.00  0.00    +0.000 A 
ATOM     42  C   UNL     1       7.809   4.203   0.000  0.00  0.00    +0.000 A 
ATOM     43  C   UNL     1       7.094   5.441   0.000  0.00  0.00    +0.000 A 
ATOM     44  C   UNL     1       7.809   5.028   0.000  0.00  0.00    +0.000 A 
BRANCH  42  45
ATOM     45  O   UNL     1       8.523   3.791   0.000  0.00  0.00    +0.000 OA
ATOM     46  C   UNL     1       9.238   4.203   0.000  0.00  0.00    +0.000 C 
ENDBRANCH  42  45
ENDBRANCH  30  39
ENDBRANCH  25  29
ENDBRANCH   8  25
BRANCH   4  47
ATOM     47  C   UNL     1       4.951   0.078   0.000  0.00  0.00    +0.000 C 
BRANCH  47  48
ATOM     48  O   UNL     1       4.951  -0.747   0.000  0.00  0.00    +0.000 OA
BRANCH  48  54
ATOM     49  O   UNL     1       3.522  -0.747   0.000  0.00  0.00    +0.000 OA
ATOM     50  O   UNL     1       4.951  -2.397   0.000  0.00  0.00    +0.000 OA
ATOM     51  O   UNL     1       3.522  -3.222   0.000  0.00  0.00    +0.000 OA
ATOM     52  O   UNL     1       2.093  -2.397   0.000  0.00  0.00    +0.000 OA
ATOM     53  C   UNL     1       4.236  -1.984   0.000  0.00  0.00    +0.000 C 
ATOM     54  C   UNL     1       4.236  -1.159   0.000  0.00  0.00    +0.000 C 
ATOM     55  C   UNL     1       3.522  -2.397   0.000  0.00  0.00    +0.000 C 
ATOM     56  C   UNL     1       2.808  -1.984   0.000  0.00  0.00    +0.000 C 
ATOM     57  C   UNL     1       2.808  -1.159   0.000  0.00  0.00    +0.000 C 
BRANCH  57  59
ATOM     58  O   UNL     1       2.093   0.078   0.000  0.00  0.00    +0.000 OA
ATOM     59  C   UNL     1       2.093  -0.747   0.000  0.00  0.00    +0.000 C 
ENDBRANCH  57  59
ENDBRANCH  48  54
ENDBRANCH  47  48
ENDBRANCH   4  47
TORSDOF 14
