REMARK  Name = 471722
REMARK  3 active torsions:
REMARK  status: ('A' for Active; 'I' for Inactive)
REMARK    1  A    between atoms: O_2  and  C_12
REMARK    2  A    between atoms: O_3  and  C_13
REMARK    3  A    between atoms: C_9  and  C_15
REMARK                            x       y       z     vdW  Elec       q    Type
REMARK                         _______ _______ _______ _____ _____    ______ ____
ROOT
ATOM      1  O   UNL     1       5.245  -0.764   0.000  0.00  0.00    +0.000 OA
ATOM      2  O   UNL     1       3.793   1.740   0.000  0.00  0.00    +0.000 OA
ATOM      3  O   UNL     1       5.236   1.768   0.000  0.00  0.00    +0.000 OA
ATOM      4  C   UNL     1       4.508   0.502   0.000  0.00  0.00    +0.000 A 
ATOM      5  C   UNL     1       4.508  -0.323   0.000  0.00  0.00    +0.000 A 
ATOM      6  C   UNL     1       3.793   0.915   0.000  0.00  0.00    +0.000 A 
ATOM      7  C   UNL     1       5.993  -0.340   0.000  0.00  0.00    +0.000 A 
ATOM      8  C   UNL     1       5.245   0.943   0.000  0.00  0.00    +0.000 A 
ATOM      9  C   UNL     1       3.793  -0.735   0.000  0.00  0.00    +0.000 A 
ATOM     10  C   UNL     1       3.079   0.502   0.000  0.00  0.00    +0.000 A 
ATOM     11  C   UNL     1       3.079  -0.323   0.000  0.00  0.00    +0.000 A 
ATOM     12  C   UNL     1       5.993   0.519   0.000  0.00  0.00    +0.000 A 
ENDROOT
BRANCH   7  13
ATOM     13  C   UNL     1       6.706  -0.755   0.000  0.00  0.00    +0.000 A 
ATOM     14  C   UNL     1       6.703  -1.580   0.000  0.00  0.00    +0.000 A 
ATOM     15  C   UNL     1       7.422  -0.345   0.000  0.00  0.00    +0.000 A 
ATOM     16  C   UNL     1       7.415  -1.995   0.000  0.00  0.00    +0.000 A 
ATOM     17  C   UNL     1       8.135  -0.761   0.000  0.00  0.00    +0.000 A 
ATOM     18  C   UNL     1       8.132  -1.586   0.000  0.00  0.00    +0.000 A 
ENDBRANCH   7  13
BRANCH  10  19
ATOM     19  O   UNL     1       2.364   0.915   0.000  0.00  0.00    +0.000 OA
ATOM     20  C   UNL     1       1.650   0.502   0.000  0.00  0.00    +0.000 C 
ENDBRANCH  10  19
BRANCH  11  21
ATOM     21  O   UNL     1       2.364  -0.735   0.000  0.00  0.00    +0.000 OA
ATOM     22  C   UNL     1       2.364  -1.560   0.000  0.00  0.00    +0.000 C 
ENDBRANCH  11  21
TORSDOF 3
