REMARK  Name = 45933925
REMARK  4 active torsions:
REMARK  status: ('A' for Active; 'I' for Inactive)
REMARK    1  A    between atoms: O_2  and  C_12
REMARK    2  A    between atoms: O_4  and  C_14
REMARK    3  A    between atoms: O_5  and  C_16
REMARK    4  A    between atoms: C_6  and  C_8
REMARK                            x       y       z     vdW  Elec       q    Type
REMARK                         _______ _______ _______ _____ _____    ______ ____
ROOT
ATOM      1  O   UNL     1       3.849  -0.225   0.000  0.00  0.00    +0.000 OA
ATOM      2  O   UNL     1       3.849   2.250   0.000  0.00  0.00    +0.000 OA
ATOM      3  C   UNL     1       4.564   0.188   0.000  0.00  0.00    +0.000 C 
ATOM      4  C   UNL     1       4.564   1.013   0.000  0.00  0.00    +0.000 C 
ATOM      5  C   UNL     1       3.135   1.013   0.000  0.00  0.00    +0.000 A 
ATOM      6  C   UNL     1       3.849   1.425   0.000  0.00  0.00    +0.000 C 
ATOM      7  C   UNL     1       3.135   0.188   0.000  0.00  0.00    +0.000 A 
ATOM      8  C   UNL     1       2.397   1.454   0.000  0.00  0.00    +0.000 A 
ATOM      9  C   UNL     1       2.397  -0.253   0.000  0.00  0.00    +0.000 A 
ATOM     10  C   UNL     1       1.650   1.030   0.000  0.00  0.00    +0.000 A 
ATOM     11  C   UNL     1       1.650   0.171   0.000  0.00  0.00    +0.000 A 
ENDROOT
BRANCH   3  12
ATOM     12  C   UNL     1       5.278  -0.225   0.000  0.00  0.00    +0.000 A 
ATOM     13  C   UNL     1       5.278  -1.050   0.000  0.00  0.00    +0.000 A 
ATOM     14  C   UNL     1       5.993   0.188   0.000  0.00  0.00    +0.000 A 
ATOM     15  C   UNL     1       5.993  -1.462   0.000  0.00  0.00    +0.000 A 
ATOM     16  C   UNL     1       6.707  -0.225   0.000  0.00  0.00    +0.000 A 
ATOM     17  C   UNL     1       6.707  -1.050   0.000  0.00  0.00    +0.000 A 
BRANCH  13  18
ATOM     18  O   UNL     1       4.564  -1.462   0.000  0.00  0.00    +0.000 OA
ATOM     19  C   UNL     1       4.564  -2.287   0.000  0.00  0.00    +0.000 C 
ENDBRANCH  13  18
BRANCH  15  20
ATOM     20  O   UNL     1       5.993  -2.287   0.000  0.00  0.00    +0.000 OA
ATOM     21  C   UNL     1       6.707  -2.700   0.000  0.00  0.00    +0.000 C 
ENDBRANCH  15  20
ENDBRANCH   3  12
BRANCH   8  22
ATOM     22  O   UNL     1       2.407   2.279   0.000  0.00  0.00    +0.000 OA
ATOM     23  C   UNL     1       1.697   2.700   0.000  0.00  0.00    +0.000 C 
ENDBRANCH   8  22
TORSDOF 4
