REMARK  Name = 42607606
REMARK  9 active torsions:
REMARK  status: ('A' for Active; 'I' for Inactive)
REMARK    1  A    between atoms: O_3  and  C_24
REMARK    2  A    between atoms: O_3  and  C_28
REMARK    3  A    between atoms: O_4  and  C_25
REMARK    4  A    between atoms: O_4  and  C_29
REMARK    5  A    between atoms: C_21  and  C_26
REMARK    6  A    between atoms: C_23  and  C_27
REMARK    7  A    between atoms: C_31  and  C_34
REMARK    8  A    between atoms: C_34  and  C_35
REMARK    9  A    between atoms: C_36  and  C_37
REMARK                            x       y       z     vdW  Elec       q    Type
REMARK                         _______ _______ _______ _____ _____    ______ ____
ROOT
ATOM      1  O   UNL     1       7.094   0.825   0.000  0.00  0.00    +0.000 OA
ATOM      2  C   UNL     1       5.665  -0.825   0.000  0.00  0.00    +0.000 A 
ATOM      3  C   UNL     1       4.951   0.412   0.000  0.00  0.00    +0.000 A 
ATOM      4  C   UNL     1       4.951  -0.412   0.000  0.00  0.00    +0.000 A 
ATOM      5  C   UNL     1       6.380  -0.412   0.000  0.00  0.00    +0.000 A 
ATOM      6  C   UNL     1       5.665   0.825   0.000  0.00  0.00    +0.000 A 
ATOM      7  C   UNL     1       6.380   0.412   0.000  0.00  0.00    +0.000 A 
ENDROOT
BRANCH   5   9
ATOM      8  O   UNL     1       7.094  -1.650   0.000  0.00  0.00    +0.000 OA
ATOM      9  C   UNL     1       7.094  -0.825   0.000  0.00  0.00    +0.000 C 
BRANCH   9  10
ATOM     10  C   UNL     1       7.809  -0.412   0.000  0.00  0.00    +0.000 C 
ATOM     11  C   UNL     1       8.523  -0.825   0.000  0.00  0.00    +0.000 C 
BRANCH  11  13
ATOM     12  O   UNL     1      11.381   0.825   0.000  0.00  0.00    +0.000 OA
ATOM     13  C   UNL     1       9.238  -0.412   0.000  0.00  0.00    +0.000 A 
ATOM     14  C   UNL     1       9.238   0.412   0.000  0.00  0.00    +0.000 A 
ATOM     15  C   UNL     1       9.952  -0.825   0.000  0.00  0.00    +0.000 A 
ATOM     16  C   UNL     1       9.952   0.825   0.000  0.00  0.00    +0.000 A 
ATOM     17  C   UNL     1      10.667  -0.412   0.000  0.00  0.00    +0.000 A 
ATOM     18  C   UNL     1      10.667   0.412   0.000  0.00  0.00    +0.000 A 
ENDBRANCH  11  13
ENDBRANCH   9  10
ENDBRANCH   5   9
BRANCH   2  19
ATOM     19  O   UNL     1       5.665  -1.650   0.000  0.00  0.00    +0.000 OA
BRANCH  19  28
ATOM     20  O   UNL     1       4.237  -1.650   0.000  0.00  0.00    +0.000 OA
ATOM     21  O   UNL     1       4.237  -4.125   0.000  0.00  0.00    +0.000 OA
ATOM     22  O   UNL     1       2.808  -3.300   0.000  0.00  0.00    +0.000 OA
ATOM     23  O   UNL     1       5.665  -3.300   0.000  0.00  0.00    +0.000 OA
ATOM     24  C   UNL     1       4.237  -3.300   0.000  0.00  0.00    +0.000 C 
ATOM     25  C   UNL     1       3.522  -2.888   0.000  0.00  0.00    +0.000 C 
ATOM     26  C   UNL     1       4.951  -2.888   0.000  0.00  0.00    +0.000 C 
ATOM     27  C   UNL     1       3.522  -2.062   0.000  0.00  0.00    +0.000 C 
ATOM     28  C   UNL     1       4.951  -2.062   0.000  0.00  0.00    +0.000 C 
BRANCH  27  30
ATOM     29  O   UNL     1       2.093  -2.062   0.000  0.00  0.00    +0.000 OA
ATOM     30  C   UNL     1       2.808  -1.650   0.000  0.00  0.00    +0.000 C 
ENDBRANCH  27  30
ENDBRANCH  19  28
ENDBRANCH   2  19
BRANCH   3  31
ATOM     31  O   UNL     1       4.237   0.825   0.000  0.00  0.00    +0.000 OA
BRANCH  31  40
ATOM     32  O   UNL     1       3.522   2.062   0.000  0.00  0.00    +0.000 OA
ATOM     33  O   UNL     1       5.665   3.300   0.000  0.00  0.00    +0.000 OA
ATOM     34  O   UNL     1       4.237   4.125   0.000  0.00  0.00    +0.000 OA
ATOM     35  O   UNL     1       5.665   1.650   0.000  0.00  0.00    +0.000 OA
ATOM     36  C   UNL     1       4.951   2.888   0.000  0.00  0.00    +0.000 C 
ATOM     37  C   UNL     1       4.237   3.300   0.000  0.00  0.00    +0.000 C 
ATOM     38  C   UNL     1       4.951   2.062   0.000  0.00  0.00    +0.000 C 
ATOM     39  C   UNL     1       3.522   2.888   0.000  0.00  0.00    +0.000 C 
ATOM     40  C   UNL     1       4.237   1.650   0.000  0.00  0.00    +0.000 C 
BRANCH  39  42
ATOM     41  O   UNL     1       2.093   2.888   0.000  0.00  0.00    +0.000 OA
ATOM     42  C   UNL     1       2.808   3.300   0.000  0.00  0.00    +0.000 C 
ENDBRANCH  39  42
ENDBRANCH  31  40
ENDBRANCH   3  31
TORSDOF 9
