REMARK  Name = 24211972
REMARK  6 active torsions:
REMARK  status: ('A' for Active; 'I' for Inactive)
REMARK    1  A    between atoms: O_1  and  C_16
REMARK    2  A    between atoms: O_1  and  C_19
REMARK    3  A    between atoms: O_5  and  C_21
REMARK    4  A    between atoms: O_5  and  C_28
REMARK    5  A    between atoms: C_22  and  C_26
REMARK    6  A    between atoms: C_35  and  C_37
REMARK                            x       y       z     vdW  Elec       q    Type
REMARK                         _______ _______ _______ _____ _____    ______ ____
ROOT
ATOM      1  O   UNL     1       5.665  -1.386   0.000  0.00  0.00    +0.000 OA
ENDROOT
BRANCH   1   6
ATOM      2  O   UNL     1       7.114   1.141   0.000  0.00  0.00    +0.000 OA
ATOM      3  O   UNL     1       4.225   1.155   0.000  0.00  0.00    +0.000 OA
ATOM      4  O   UNL     1       4.975   2.387   0.000  0.00  0.00    +0.000 OA
ATOM      5  O   UNL     1       6.407   3.206   0.000  0.00  0.00    +0.000 OA
ATOM      6  C   UNL     1       5.665  -0.561   0.000  0.00  0.00    +0.000 A 
ATOM      7  C   UNL     1       6.408  -0.128   0.000  0.00  0.00    +0.000 A 
ATOM      8  C   UNL     1       4.923  -0.128   0.000  0.00  0.00    +0.000 A 
ATOM      9  C   UNL     1       6.398   0.731   0.000  0.00  0.00    +0.000 A 
ATOM     10  C   UNL     1       4.933   0.731   0.000  0.00  0.00    +0.000 A 
ATOM     11  C   UNL     1       5.685   1.146   0.000  0.00  0.00    +0.000 A 
ATOM     12  C   UNL     1       5.688   1.971   0.000  0.00  0.00    +0.000 A 
ATOM     13  C   UNL     1       7.117   1.966   0.000  0.00  0.00    +0.000 A 
ATOM     14  C   UNL     1       6.404   2.381   0.000  0.00  0.00    +0.000 A 
BRANCH  13  16
ATOM     15  O   UNL     1       9.981   3.605   0.000  0.00  0.00    +0.000 OA
ATOM     16  C   UNL     1       7.833   2.376   0.000  0.00  0.00    +0.000 A 
ATOM     17  C   UNL     1       7.836   3.201   0.000  0.00  0.00    +0.000 A 
ATOM     18  C   UNL     1       8.546   1.960   0.000  0.00  0.00    +0.000 A 
ATOM     19  C   UNL     1       8.552   3.610   0.000  0.00  0.00    +0.000 A 
ATOM     20  C   UNL     1       9.262   2.370   0.000  0.00  0.00    +0.000 A 
ATOM     21  C   UNL     1       9.265   3.195   0.000  0.00  0.00    +0.000 A 
ENDBRANCH  13  16
ENDBRANCH   1   6
BRANCH   1  28
ATOM     22  O   UNL     1       4.236  -1.386   0.000  0.00  0.00    +0.000 OA
ATOM     23  O   UNL     1       4.236  -3.861   0.000  0.00  0.00    +0.000 OA
ATOM     24  O   UNL     1       2.808  -3.036   0.000  0.00  0.00    +0.000 OA
ATOM     25  C   UNL     1       4.951  -2.623   0.000  0.00  0.00    +0.000 C 
ATOM     26  C   UNL     1       4.236  -3.036   0.000  0.00  0.00    +0.000 C 
ATOM     27  C   UNL     1       3.522  -2.623   0.000  0.00  0.00    +0.000 C 
ATOM     28  C   UNL     1       4.951  -1.798   0.000  0.00  0.00    +0.000 C 
ATOM     29  C   UNL     1       3.522  -1.798   0.000  0.00  0.00    +0.000 C 
BRANCH  29  31
ATOM     30  O   UNL     1       2.093  -1.798   0.000  0.00  0.00    +0.000 OA
ATOM     31  C   UNL     1       2.808  -1.386   0.000  0.00  0.00    +0.000 C 
ENDBRANCH  29  31
BRANCH  25  32
ATOM     32  O   UNL     1       5.665  -3.036   0.000  0.00  0.00    +0.000 OA
BRANCH  32  37
ATOM     33  O   UNL     1       6.380  -1.798   0.000  0.00  0.00    +0.000 OA
ATOM     34  O   UNL     1       7.094  -3.861   0.000  0.00  0.00    +0.000 OA
ATOM     35  O   UNL     1       8.523  -3.036   0.000  0.00  0.00    +0.000 OA
ATOM     36  O   UNL     1       8.523  -1.386   0.000  0.00  0.00    +0.000 OA
ATOM     37  C   UNL     1       6.380  -2.623   0.000  0.00  0.00    +0.000 C 
ATOM     38  C   UNL     1       7.094  -3.036   0.000  0.00  0.00    +0.000 C 
ATOM     39  C   UNL     1       7.809  -2.623   0.000  0.00  0.00    +0.000 C 
ATOM     40  C   UNL     1       7.809  -1.798   0.000  0.00  0.00    +0.000 C 
ATOM     41  C   UNL     1       7.094  -1.386   0.000  0.00  0.00    +0.000 C 
ATOM     42  C   UNL     1       7.094  -0.561   0.000  0.00  0.00    +0.000 C 
ENDBRANCH  32  37
ENDBRANCH  25  32
ENDBRANCH   1  28
TORSDOF 6
