REMARK  Name = 44258249
REMARK  7 active torsions:
REMARK  status: ('A' for Active; 'I' for Inactive)
REMARK    1  A    between atoms: O_3  and  C_28
REMARK    2  A    between atoms: O_3  and  C_33
REMARK    3  A    between atoms: O_4  and  C_29
REMARK    4  A    between atoms: O_4  and  C_32
REMARK    5  A    between atoms: C_26  and  C_30
REMARK    6  A    between atoms: C_27  and  C_31
REMARK    7  A    between atoms: C_39  and  C_41
REMARK                            x       y       z     vdW  Elec       q    Type
REMARK                         _______ _______ _______ _____ _____    ______ ____
ROOT
ATOM      1  O   UNL     1       7.114   0.526   0.000  0.00  0.00    +0.000 OA
ATOM      2  O   UNL     1       4.225   0.540   0.000  0.00  0.00    +0.000 OA
ATOM      3  O   UNL     1       4.975   1.772   0.000  0.00  0.00    +0.000 OA
ATOM      4  C   UNL     1       5.665  -1.175   0.000  0.00  0.00    +0.000 A 
ATOM      5  C   UNL     1       6.408  -0.743   0.000  0.00  0.00    +0.000 A 
ATOM      6  C   UNL     1       4.923  -0.743   0.000  0.00  0.00    +0.000 A 
ATOM      7  C   UNL     1       6.398   0.117   0.000  0.00  0.00    +0.000 A 
ATOM      8  C   UNL     1       5.685   0.532   0.000  0.00  0.00    +0.000 A 
ATOM      9  C   UNL     1       7.117   1.351   0.000  0.00  0.00    +0.000 A 
ATOM     10  C   UNL     1       4.933   0.117   0.000  0.00  0.00    +0.000 A 
ATOM     11  C   UNL     1       5.688   1.357   0.000  0.00  0.00    +0.000 A 
ATOM     12  C   UNL     1       6.404   1.767   0.000  0.00  0.00    +0.000 A 
ENDROOT
BRANCH   9  18
ATOM     13  O   UNL     1       9.981   2.990   0.000  0.00  0.00    +0.000 OA
ATOM     14  O   UNL     1       8.556   3.821   0.000  0.00  0.00    +0.000 OA
ATOM     15  C   UNL     1       9.262   1.756   0.000  0.00  0.00    +0.000 A 
ATOM     16  C   UNL     1       8.546   1.346   0.000  0.00  0.00    +0.000 A 
ATOM     17  C   UNL     1       9.265   2.580   0.000  0.00  0.00    +0.000 A 
ATOM     18  C   UNL     1       7.833   1.761   0.000  0.00  0.00    +0.000 A 
ATOM     19  C   UNL     1       8.552   2.996   0.000  0.00  0.00    +0.000 A 
ATOM     20  C   UNL     1       7.836   2.586   0.000  0.00  0.00    +0.000 A 
BRANCH  15  21
ATOM     21  O   UNL     1       9.975   1.340   0.000  0.00  0.00    +0.000 OA
BRANCH  21  30
ATOM     22  O   UNL     1      10.694   2.575   0.000  0.00  0.00    +0.000 OA
ATOM     23  O   UNL     1      12.833   1.329   0.000  0.00  0.00    +0.000 OA
ATOM     24  O   UNL     1      12.839   2.979   0.000  0.00  0.00    +0.000 OA
ATOM     25  O   UNL     1      11.401   0.510   0.000  0.00  0.00    +0.000 OA
ATOM     26  C   UNL     1      12.120   1.744   0.000  0.00  0.00    +0.000 C 
ATOM     27  C   UNL     1      12.123   2.570   0.000  0.00  0.00    +0.000 C 
ATOM     28  C   UNL     1      11.404   1.335   0.000  0.00  0.00    +0.000 C 
ATOM     29  C   UNL     1      11.410   2.985   0.000  0.00  0.00    +0.000 C 
ATOM     30  C   UNL     1      10.691   1.750   0.000  0.00  0.00    +0.000 C 
BRANCH  29  33
ATOM     31  O   UNL     1      12.130   4.220   0.000  0.00  0.00    +0.000 OA
ATOM     32  O   UNL     1      10.701   4.225   0.000  0.00  0.00    +0.000 OA
ATOM     33  C   UNL     1      11.414   3.810   0.000  0.00  0.00    +0.000 C 
ENDBRANCH  29  33
ENDBRANCH  21  30
ENDBRANCH  15  21
ENDBRANCH   9  18
BRANCH   4  34
ATOM     34  O   UNL     1       5.665  -2.000   0.000  0.00  0.00    +0.000 OA
BRANCH  34  43
ATOM     35  O   UNL     1       4.236  -2.000   0.000  0.00  0.00    +0.000 OA
ATOM     36  O   UNL     1       4.236  -4.475   0.000  0.00  0.00    +0.000 OA
ATOM     37  O   UNL     1       2.808  -3.650   0.000  0.00  0.00    +0.000 OA
ATOM     38  O   UNL     1       5.665  -3.650   0.000  0.00  0.00    +0.000 OA
ATOM     39  C   UNL     1       4.236  -3.650   0.000  0.00  0.00    +0.000 C 
ATOM     40  C   UNL     1       3.522  -3.238   0.000  0.00  0.00    +0.000 C 
ATOM     41  C   UNL     1       4.951  -3.238   0.000  0.00  0.00    +0.000 C 
ATOM     42  C   UNL     1       3.522  -2.413   0.000  0.00  0.00    +0.000 C 
ATOM     43  C   UNL     1       4.951  -2.413   0.000  0.00  0.00    +0.000 C 
BRANCH  42  46
ATOM     44  O   UNL     1       2.093  -2.413   0.000  0.00  0.00    +0.000 OA
ATOM     45  O   UNL     1       2.808  -1.175   0.000  0.00  0.00    +0.000 OA
ATOM     46  C   UNL     1       2.808  -2.000   0.000  0.00  0.00    +0.000 C 
ENDBRANCH  42  46
ENDBRANCH  34  43
ENDBRANCH   4  34
TORSDOF 7
