REMARK  Name = 15382687
REMARK  7 active torsions:
REMARK  status: ('A' for Active; 'I' for Inactive)
REMARK    1  A    between atoms: O_2  and  C_14
REMARK    2  A    between atoms: O_3  and  C_16
REMARK    3  A    between atoms: O_4  and  C_18
REMARK    4  A    between atoms: O_6  and  C_22
REMARK    5  A    between atoms: O_7  and  C_23
REMARK    6  A    between atoms: O_9  and  C_24
REMARK    7  A    between atoms: C_12  and  C_13
REMARK                            x       y       z     vdW  Elec       q    Type
REMARK                         _______ _______ _______ _____ _____    ______ ____
ROOT
ATOM      1  O   UNL     1       5.278  -0.225   0.000  0.00  0.00    +0.000 OA
ATOM      2  O   UNL     1       3.836  -1.078   0.000  0.00  0.00    +0.000 OA
ATOM      3  O   UNL     1       5.278   2.250   0.000  0.00  0.00    +0.000 OA
ATOM      4  C   UNL     1       4.564   1.013   0.000  0.00  0.00    +0.000 A 
ATOM      5  C   UNL     1       4.564   0.188   0.000  0.00  0.00    +0.000 A 
ATOM      6  C   UNL     1       5.993   0.188   0.000  0.00  0.00    +0.000 A 
ATOM      7  C   UNL     1       5.993   1.013   0.000  0.00  0.00    +0.000 A 
ATOM      8  C   UNL     1       5.278   1.425   0.000  0.00  0.00    +0.000 A 
ATOM      9  C   UNL     1       3.826   1.454   0.000  0.00  0.00    +0.000 A 
ATOM     10  C   UNL     1       3.826  -0.253   0.000  0.00  0.00    +0.000 A 
ATOM     11  C   UNL     1       3.079   0.171   0.000  0.00  0.00    +0.000 A 
ATOM     12  C   UNL     1       3.079   1.030   0.000  0.00  0.00    +0.000 A 
ENDROOT
BRANCH   6  13
ATOM     13  C   UNL     1       6.707  -0.225   0.000  0.00  0.00    +0.000 A 
ATOM     14  C   UNL     1       6.707  -1.050   0.000  0.00  0.00    +0.000 A 
ATOM     15  C   UNL     1       7.422   0.188   0.000  0.00  0.00    +0.000 A 
ATOM     16  C   UNL     1       8.136  -0.225   0.000  0.00  0.00    +0.000 A 
ATOM     17  C   UNL     1       7.422  -1.462   0.000  0.00  0.00    +0.000 A 
ATOM     18  C   UNL     1       8.136  -1.050   0.000  0.00  0.00    +0.000 A 
BRANCH  16  19
ATOM     19  O   UNL     1       8.851   0.188   0.000  0.00  0.00    +0.000 OA
ATOM     20  C   UNL     1       9.565  -0.225   0.000  0.00  0.00    +0.000 C 
ENDBRANCH  16  19
BRANCH  17  21
ATOM     21  O   UNL     1       7.422  -2.287   0.000  0.00  0.00    +0.000 OA
ATOM     22  C   UNL     1       6.707  -2.700   0.000  0.00  0.00    +0.000 C 
ENDBRANCH  17  21
BRANCH  18  23
ATOM     23  O   UNL     1       8.851  -1.462   0.000  0.00  0.00    +0.000 OA
ATOM     24  C   UNL     1       8.851  -2.287   0.000  0.00  0.00    +0.000 C 
ENDBRANCH  18  23
ENDBRANCH   6  13
BRANCH   7  25
ATOM     25  O   UNL     1       6.707   1.425   0.000  0.00  0.00    +0.000 OA
ATOM     26  C   UNL     1       6.707   2.250   0.000  0.00  0.00    +0.000 C 
ENDBRANCH   7  25
BRANCH   9  27
ATOM     27  O   UNL     1       3.836   2.279   0.000  0.00  0.00    +0.000 OA
ATOM     28  C   UNL     1       3.126   2.700   0.000  0.00  0.00    +0.000 C 
ENDBRANCH   9  27
BRANCH  11  29
ATOM     29  O   UNL     1       2.366  -0.244   0.000  0.00  0.00    +0.000 OA
ATOM     30  C   UNL     1       1.650   0.165   0.000  0.00  0.00    +0.000 C 
ENDBRANCH  11  29
TORSDOF 7
