REMARK  Name = 44257198
REMARK  6 active torsions:
REMARK  status: ('A' for Active; 'I' for Inactive)
REMARK    1  A    between atoms: O_2  and  C_14
REMARK    2  A    between atoms: O_2  and  C_20
REMARK    3  A    between atoms: O_8  and  C_25
REMARK    4  A    between atoms: O_9  and  C_30
REMARK    5  A    between atoms: C_13  and  C_15
REMARK    6  A    between atoms: C_19  and  C_22
REMARK                            x       y       z     vdW  Elec       q    Type
REMARK                         _______ _______ _______ _____ _____    ______ ____
ROOT
ATOM      1  O   UNL     1       7.117   1.999   0.000  0.00  0.00    +0.000 OA
ATOM      2  C   UNL     1       6.380   0.733   0.000  0.00  0.00    +0.000 A 
ATOM      3  C   UNL     1       7.117   0.291   0.000  0.00  0.00    +0.000 C 
ATOM      4  C   UNL     1       7.865   0.715   0.000  0.00  0.00    +0.000 C 
ATOM      5  C   UNL     1       7.865   1.575   0.000  0.00  0.00    +0.000 C 
ATOM      6  C   UNL     1       5.665   0.320   0.000  0.00  0.00    +0.000 A 
ATOM      7  C   UNL     1       6.380   1.558   0.000  0.00  0.00    +0.000 A 
ATOM      8  C   UNL     1       4.951   0.733   0.000  0.00  0.00    +0.000 A 
ATOM      9  C   UNL     1       5.665   1.970   0.000  0.00  0.00    +0.000 A 
ATOM     10  C   UNL     1       4.951   1.558   0.000  0.00  0.00    +0.000 A 
ENDROOT
BRANCH   5  11
ATOM     11  C   UNL     1       8.578   1.990   0.000  0.00  0.00    +0.000 A 
ATOM     12  C   UNL     1       8.575   2.815   0.000  0.00  0.00    +0.000 A 
ATOM     13  C   UNL     1       9.294   1.580   0.000  0.00  0.00    +0.000 A 
ATOM     14  C   UNL     1       9.287   3.230   0.000  0.00  0.00    +0.000 A 
ATOM     15  C   UNL     1      10.007   1.996   0.000  0.00  0.00    +0.000 A 
ATOM     16  C   UNL     1      10.004   2.820   0.000  0.00  0.00    +0.000 A 
BRANCH  16  17
ATOM     17  O   UNL     1      10.716   3.236   0.000  0.00  0.00    +0.000 OA
ATOM     18  C   UNL     1      11.432   2.826   0.000  0.00  0.00    +0.000 C 
ENDBRANCH  16  17
ENDBRANCH   5  11
BRANCH  10  19
ATOM     19  O   UNL     1       4.236   1.970   0.000  0.00  0.00    +0.000 OA
ATOM     20  C   UNL     1       4.236   2.795   0.000  0.00  0.00    +0.000 C 
ENDBRANCH  10  19
BRANCH   6  21
ATOM     21  O   UNL     1       5.665  -0.505   0.000  0.00  0.00    +0.000 OA
BRANCH  21  30
ATOM     22  O   UNL     1       4.236  -0.505   0.000  0.00  0.00    +0.000 OA
ATOM     23  O   UNL     1       4.236  -2.980   0.000  0.00  0.00    +0.000 OA
ATOM     24  O   UNL     1       2.808  -2.155   0.000  0.00  0.00    +0.000 OA
ATOM     25  O   UNL     1       5.665  -2.155   0.000  0.00  0.00    +0.000 OA
ATOM     26  C   UNL     1       4.236  -2.155   0.000  0.00  0.00    +0.000 C 
ATOM     27  C   UNL     1       3.522  -1.742   0.000  0.00  0.00    +0.000 C 
ATOM     28  C   UNL     1       4.951  -1.742   0.000  0.00  0.00    +0.000 C 
ATOM     29  C   UNL     1       3.522  -0.917   0.000  0.00  0.00    +0.000 C 
ATOM     30  C   UNL     1       4.951  -0.917   0.000  0.00  0.00    +0.000 C 
BRANCH  29  32
ATOM     31  O   UNL     1       2.093  -0.917   0.000  0.00  0.00    +0.000 OA
ATOM     32  C   UNL     1       2.808  -0.505   0.000  0.00  0.00    +0.000 C 
ENDBRANCH  29  32
ENDBRANCH  21  30
ENDBRANCH   6  21
TORSDOF 6
