REMARK  Name = 42607841
REMARK  5 active torsions:
REMARK  status: ('A' for Active; 'I' for Inactive)
REMARK    1  A    between atoms: O_2  and  C_15
REMARK    2  A    between atoms: O_2  and  C_18
REMARK    3  A    between atoms: O_10  and  C_30
REMARK    4  A    between atoms: C_14  and  C_16
REMARK    5  A    between atoms: C_17  and  C_19
REMARK                            x       y       z     vdW  Elec       q    Type
REMARK                         _______ _______ _______ _____ _____    ______ ____
ROOT
ATOM      1  C   UNL     1       5.222   0.953   0.000  0.00  0.00    +0.000 A 
ATOM      2  C   UNL     1       5.937   1.365   0.000  0.00  0.00    +0.000 A 
ATOM      3  C   UNL     1       4.508   1.365   0.000  0.00  0.00    +0.000 A 
ATOM      4  C   UNL     1       5.937   2.190   0.000  0.00  0.00    +0.000 A 
ATOM      5  C   UNL     1       4.508   2.190   0.000  0.00  0.00    +0.000 A 
ATOM      6  C   UNL     1       5.222   2.603   0.000  0.00  0.00    +0.000 A 
ENDROOT
BRANCH   2  10
ATOM      7  O   UNL     1       7.366   1.365   0.000  0.00  0.00    +0.000 OA
ATOM      8  O   UNL     1       7.366  -1.110   0.000  0.00  0.00    +0.000 OA
ATOM      9  O   UNL     1       8.808  -1.138   0.000  0.00  0.00    +0.000 OA
ATOM     10  C   UNL     1       6.651   0.953   0.000  0.00  0.00    +0.000 C 
ATOM     11  C   UNL     1       6.651   0.128   0.000  0.00  0.00    +0.000 C 
ATOM     12  C   UNL     1       7.366  -0.285   0.000  0.00  0.00    +0.000 C 
ATOM     13  C   UNL     1       8.080   0.128   0.000  0.00  0.00    +0.000 A 
ATOM     14  C   UNL     1       8.080   0.953   0.000  0.00  0.00    +0.000 A 
ATOM     15  C   UNL     1       8.818  -0.313   0.000  0.00  0.00    +0.000 A 
ATOM     16  C   UNL     1       8.818   1.394   0.000  0.00  0.00    +0.000 A 
ATOM     17  C   UNL     1       9.565   0.970   0.000  0.00  0.00    +0.000 A 
ATOM     18  C   UNL     1       9.565   0.111   0.000  0.00  0.00    +0.000 A 
BRANCH  17  19
ATOM     19  O   UNL     1      10.278   1.385   0.000  0.00  0.00    +0.000 OA
ATOM     20  C   UNL     1      10.275   2.210   0.000  0.00  0.00    +0.000 C 
ENDBRANCH  17  19
ENDBRANCH   2  10
BRANCH   1  21
ATOM     21  O   UNL     1       5.222   0.128   0.000  0.00  0.00    +0.000 OA
BRANCH  21  30
ATOM     22  O   UNL     1       3.793   0.128   0.000  0.00  0.00    +0.000 OA
ATOM     23  O   UNL     1       3.793  -2.347   0.000  0.00  0.00    +0.000 OA
ATOM     24  O   UNL     1       2.364  -1.522   0.000  0.00  0.00    +0.000 OA
ATOM     25  O   UNL     1       5.222  -1.522   0.000  0.00  0.00    +0.000 OA
ATOM     26  C   UNL     1       3.793  -1.522   0.000  0.00  0.00    +0.000 C 
ATOM     27  C   UNL     1       3.079  -1.110   0.000  0.00  0.00    +0.000 C 
ATOM     28  C   UNL     1       4.508  -1.110   0.000  0.00  0.00    +0.000 C 
ATOM     29  C   UNL     1       3.079  -0.285   0.000  0.00  0.00    +0.000 C 
ATOM     30  C   UNL     1       4.508  -0.285   0.000  0.00  0.00    +0.000 C 
BRANCH  29  32
ATOM     31  O   UNL     1       1.650  -0.285   0.000  0.00  0.00    +0.000 OA
ATOM     32  C   UNL     1       2.364   0.128   0.000  0.00  0.00    +0.000 C 
ENDBRANCH  29  32
ENDBRANCH  21  30
ENDBRANCH   1  21
TORSDOF 5
