REMARK  Name = 44260019
REMARK  6 active torsions:
REMARK  status: ('A' for Active; 'I' for Inactive)
REMARK    1  A    between atoms: S_1  and  O_11
REMARK    2  A    between atoms: O_3  and  C_22
REMARK    3  A    between atoms: O_3  and  C_24
REMARK    4  A    between atoms: O_11  and  C_32
REMARK    5  A    between atoms: C_21  and  C_23
REMARK    6  A    between atoms: C_31  and  C_33
REMARK                            x       y       z     vdW  Elec       q    Type
REMARK                         _______ _______ _______ _____ _____    ______ ____
ROOT
ATOM      1  O   UNL     1       7.117   0.017   0.000  0.00  0.00    +0.000 OA
ATOM      2  O   UNL     1       4.205   0.031   0.000  0.00  0.00    +0.000 OA
ATOM      3  O   UNL     1       5.704   2.537   0.000  0.00  0.00    +0.000 OA
ATOM      4  O   UNL     1       7.146   2.492   0.000  0.00  0.00    +0.000 OA
ATOM      5  C   UNL     1       5.665   0.005   0.000  0.00  0.00    +0.000 A 
ATOM      6  C   UNL     1       6.408   0.438   0.000  0.00  0.00    +0.000 A 
ATOM      7  C   UNL     1       4.923   0.438   0.000  0.00  0.00    +0.000 A 
ATOM      8  C   UNL     1       6.417   1.262   0.000  0.00  0.00    +0.000 A 
ATOM      9  C   UNL     1       5.685   1.712   0.000  0.00  0.00    +0.000 A 
ATOM     10  C   UNL     1       4.933   1.297   0.000  0.00  0.00    +0.000 A 
ATOM     11  C   UNL     1       7.137   1.667   0.000  0.00  0.00    +0.000 A 
ATOM     12  C   UNL     1       7.837   0.421   0.000  0.00  0.00    +0.000 A 
ATOM     13  C   UNL     1       7.846   1.246   0.000  0.00  0.00    +0.000 A 
ENDROOT
BRANCH  12  16
ATOM     14  O   UNL     1       9.237  -2.070   0.000  0.00  0.00    +0.000 OA
ATOM     15  O   UNL     1      10.675  -1.262   0.000  0.00  0.00    +0.000 OA
ATOM     16  C   UNL     1       8.546   0.000   0.000  0.00  0.00    +0.000 A 
ATOM     17  C   UNL     1       8.537  -0.825   0.000  0.00  0.00    +0.000 A 
ATOM     18  C   UNL     1       9.266   0.405   0.000  0.00  0.00    +0.000 A 
ATOM     19  C   UNL     1       9.246  -1.245   0.000  0.00  0.00    +0.000 A 
ATOM     20  C   UNL     1       9.975  -0.016   0.000  0.00  0.00    +0.000 A 
ATOM     21  C   UNL     1       9.966  -0.841   0.000  0.00  0.00    +0.000 A 
ENDBRANCH  12  16
BRANCH   5  22
ATOM     22  O   UNL     1       5.665  -0.820   0.000  0.00  0.00    +0.000 OA
BRANCH  22  31
ATOM     23  O   UNL     1       4.236  -0.820   0.000  0.00  0.00    +0.000 OA
ATOM     24  O   UNL     1       4.236  -3.295   0.000  0.00  0.00    +0.000 OA
ATOM     25  O   UNL     1       2.808  -2.470   0.000  0.00  0.00    +0.000 OA
ATOM     26  O   UNL     1       5.665  -2.470   0.000  0.00  0.00    +0.000 OA
ATOM     27  C   UNL     1       4.236  -2.470   0.000  0.00  0.00    +0.000 C 
ATOM     28  C   UNL     1       3.522  -2.058   0.000  0.00  0.00    +0.000 C 
ATOM     29  C   UNL     1       4.951  -2.058   0.000  0.00  0.00    +0.000 C 
ATOM     30  C   UNL     1       3.522  -1.232   0.000  0.00  0.00    +0.000 C 
ATOM     31  C   UNL     1       4.951  -1.232   0.000  0.00  0.00    +0.000 C 
BRANCH  30  33
ATOM     32  O   UNL     1       2.093  -1.232   0.000  0.00  0.00    +0.000 OA
ATOM     33  C   UNL     1       2.808  -0.820   0.000  0.00  0.00    +0.000 C 
ENDBRANCH  30  33
ENDBRANCH  22  31
ENDBRANCH   5  22
BRANCH  13  34
ATOM     34  O   UNL     1       8.566   1.650   0.000  0.00  0.00    +0.000 OA
BRANCH  34  35
ATOM     35  S   UNL     1       8.575   2.475   0.000  0.00  0.00    +0.000 S 
ATOM     36  O   UNL     1       8.585   3.300   0.000  0.00  0.00    +0.000 OA
ATOM     37  O   UNL     1       9.400   2.466   0.000  0.00  0.00    +0.000 OA
ATOM     38  O   UNL     1       7.750   2.485   0.000  0.00  0.00    +0.000 OA
ENDBRANCH  34  35
ENDBRANCH  13  34
TORSDOF 6
