REMARK  Name = 44259069
REMARK  7 active torsions:
REMARK  status: ('A' for Active; 'I' for Inactive)
REMARK    1  A    between atoms: O_2  and  C_16
REMARK    2  A    between atoms: O_2  and  C_18
REMARK    3  A    between atoms: O_11  and  C_37
REMARK    4  A    between atoms: C_19  and  C_20
REMARK    5  A    between atoms: C_19  and  C_21
REMARK    6  A    between atoms: C_21  and  C_22
REMARK    7  A    between atoms: C_25  and  C_31
REMARK                            x       y       z     vdW  Elec       q    Type
REMARK                         _______ _______ _______ _____ _____    ______ ____
ROOT
ATOM      1  O   UNL     1       5.665   0.486   0.000  0.00  0.00    +0.000 OA
ATOM      2  O   UNL     1       3.522  -0.751   0.000  0.00  0.00    +0.000 OA
ATOM      3  O   UNL     1       4.226   3.018   0.000  0.00  0.00    +0.000 OA
ATOM      4  O   UNL     1       2.776   0.484   0.000  0.00  0.00    +0.000 OA
ATOM      5  C   UNL     1       4.951  -0.751   0.000  0.00  0.00    +0.000 A 
ATOM      6  C   UNL     1       4.964   1.758   0.000  0.00  0.00    +0.000 A 
ATOM      7  C   UNL     1       4.951   0.899   0.000  0.00  0.00    +0.000 A 
ATOM      8  C   UNL     1       4.236   0.486   0.000  0.00  0.00    +0.000 A 
ATOM      9  C   UNL     1       5.665  -0.339   0.000  0.00  0.00    +0.000 A 
ATOM     10  C   UNL     1       4.236  -0.339   0.000  0.00  0.00    +0.000 A 
ATOM     11  C   UNL     1       4.223   2.193   0.000  0.00  0.00    +0.000 A 
ATOM     12  C   UNL     1       3.486   0.904   0.000  0.00  0.00    +0.000 A 
ATOM     13  C   UNL     1       3.479   1.764   0.000  0.00  0.00    +0.000 A 
ENDROOT
BRANCH   9  14
ATOM     14  C   UNL     1       6.380  -0.751   0.000  0.00  0.00    +0.000 A 
ATOM     15  C   UNL     1       6.380  -1.576   0.000  0.00  0.00    +0.000 A 
ATOM     16  C   UNL     1       7.094  -0.339   0.000  0.00  0.00    +0.000 A 
ATOM     17  C   UNL     1       7.094  -1.989   0.000  0.00  0.00    +0.000 A 
ATOM     18  C   UNL     1       7.809  -0.751   0.000  0.00  0.00    +0.000 A 
ATOM     19  C   UNL     1       7.809  -1.576   0.000  0.00  0.00    +0.000 A 
BRANCH  19  20
ATOM     20  O   UNL     1       8.523  -1.989   0.000  0.00  0.00    +0.000 OA
ATOM     21  C   UNL     1       9.238  -1.576   0.000  0.00  0.00    +0.000 C 
ENDBRANCH  19  20
ENDBRANCH   9  14
BRANCH   5  22
ATOM     22  O   UNL     1       4.951  -1.576   0.000  0.00  0.00    +0.000 OA
BRANCH  22  31
ATOM     23  O   UNL     1       3.522  -1.576   0.000  0.00  0.00    +0.000 OA
ATOM     24  O   UNL     1       3.522  -4.051   0.000  0.00  0.00    +0.000 OA
ATOM     25  O   UNL     1       2.093  -3.226   0.000  0.00  0.00    +0.000 OA
ATOM     26  O   UNL     1       4.951  -3.226   0.000  0.00  0.00    +0.000 OA
ATOM     27  C   UNL     1       3.522  -3.226   0.000  0.00  0.00    +0.000 C 
ATOM     28  C   UNL     1       2.808  -2.814   0.000  0.00  0.00    +0.000 C 
ATOM     29  C   UNL     1       4.236  -2.814   0.000  0.00  0.00    +0.000 C 
ATOM     30  C   UNL     1       2.808  -1.989   0.000  0.00  0.00    +0.000 C 
ATOM     31  C   UNL     1       4.236  -1.989   0.000  0.00  0.00    +0.000 C 
ATOM     32  C   UNL     1       2.093  -1.576   0.000  0.00  0.00    +0.000 C 
ENDBRANCH  22  31
ENDBRANCH   5  22
BRANCH   6  33
ATOM     33  C   UNL     1       5.683   2.162   0.000  0.00  0.00    +0.000 C 
BRANCH  33  34
ATOM     34  C   UNL     1       5.693   2.987   0.000  0.00  0.00    +0.000 C 
BRANCH  34  36
ATOM     35  O   UNL     1       7.131   3.796   0.000  0.00  0.00    +0.000 OA
ATOM     36  C   UNL     1       6.412   3.391   0.000  0.00  0.00    +0.000 C 
ATOM     37  C   UNL     1       6.008   4.111   0.000  0.00  0.00    +0.000 C 
ATOM     38  C   UNL     1       6.816   2.672   0.000  0.00  0.00    +0.000 C 
ENDBRANCH  34  36
ENDBRANCH  33  34
ENDBRANCH   6  33
TORSDOF 7
