REMARK  Name = 44258632
REMARK  10 active torsions:
REMARK  status: ('A' for Active; 'I' for Inactive)
REMARK    1  A    between atoms: O_3  and  C_23
REMARK    2  A    between atoms: O_3  and  C_28
REMARK    3  A    between atoms: O_5  and  C_27
REMARK    4  A    between atoms: O_5  and  C_30
REMARK    5  A    between atoms: O_12  and  C_32
REMARK    6  A    between atoms: O_14  and  C_35
REMARK    7  A    between atoms: O_17  and  C_46
REMARK    8  A    between atoms: C_18  and  C_28
REMARK    9  A    between atoms: C_26  and  C_29
REMARK   10  A    between atoms: C_38  and  C_39
REMARK                            x       y       z     vdW  Elec       q    Type
REMARK                         _______ _______ _______ _____ _____    ______ ____
ROOT
ATOM      1  O   UNL     1       4.938   2.195   0.000  0.00  0.00    +0.000 OA
ATOM      2  O   UNL     1       3.522  -0.315   0.000  0.00  0.00    +0.000 OA
ATOM      3  O   UNL     1       7.126   0.920   0.000  0.00  0.00    +0.000 OA
ATOM      4  C   UNL     1       5.665   0.098   0.000  0.00  0.00    +0.000 A 
ATOM      5  C   UNL     1       5.665   0.923   0.000  0.00  0.00    +0.000 A 
ATOM      6  C   UNL     1       4.951  -0.315   0.000  0.00  0.00    +0.000 A 
ATOM      7  C   UNL     1       4.951   1.335   0.000  0.00  0.00    +0.000 A 
ATOM      8  C   UNL     1       4.236   0.098   0.000  0.00  0.00    +0.000 A 
ATOM      9  C   UNL     1       4.236   0.923   0.000  0.00  0.00    +0.000 A 
ATOM     10  C   UNL     1       6.416   1.341   0.000  0.00  0.00    +0.000 A 
ATOM     11  C   UNL     1       6.423   2.200   0.000  0.00  0.00    +0.000 A 
ATOM     12  C   UNL     1       5.678   2.630   0.000  0.00  0.00    +0.000 A 
ENDROOT
BRANCH  12  13
ATOM     13  C   UNL     1       5.675   3.455   0.000  0.00  0.00    +0.000 A 
ATOM     14  C   UNL     1       4.959   3.865   0.000  0.00  0.00    +0.000 A 
ATOM     15  C   UNL     1       6.388   3.870   0.000  0.00  0.00    +0.000 A 
ATOM     16  C   UNL     1       4.956   4.690   0.000  0.00  0.00    +0.000 A 
ATOM     17  C   UNL     1       6.385   4.695   0.000  0.00  0.00    +0.000 A 
ATOM     18  C   UNL     1       5.669   5.105   0.000  0.00  0.00    +0.000 A 
BRANCH  18  19
ATOM     19  O   UNL     1       5.666   5.930   0.000  0.00  0.00    +0.000 OA
ATOM     20  C   UNL     1       6.379   6.345   0.000  0.00  0.00    +0.000 C 
ENDBRANCH  18  19
ENDBRANCH  12  13
BRANCH   6  21
ATOM     21  O   UNL     1       4.951  -1.140   0.000  0.00  0.00    +0.000 OA
ATOM     22  C   UNL     1       4.236  -1.552   0.000  0.00  0.00    +0.000 C 
ENDBRANCH   6  21
BRANCH   9  23
ATOM     23  O   UNL     1       3.522   1.335   0.000  0.00  0.00    +0.000 OA
ATOM     24  C   UNL     1       2.808   0.923   0.000  0.00  0.00    +0.000 C 
ENDBRANCH   9  23
BRANCH   4  25
ATOM     25  O   UNL     1       6.380  -0.315   0.000  0.00  0.00    +0.000 OA
BRANCH  25  34
ATOM     26  O   UNL     1       5.665  -1.552   0.000  0.00  0.00    +0.000 OA
ATOM     27  O   UNL     1       6.380  -3.615   0.000  0.00  0.00    +0.000 OA
ATOM     28  O   UNL     1       7.809  -2.790   0.000  0.00  0.00    +0.000 OA
ATOM     29  O   UNL     1       7.809  -1.140   0.000  0.00  0.00    +0.000 OA
ATOM     30  C   UNL     1       5.665  -2.377   0.000  0.00  0.00    +0.000 C 
ATOM     31  C   UNL     1       6.380  -2.790   0.000  0.00  0.00    +0.000 C 
ATOM     32  C   UNL     1       7.094  -2.377   0.000  0.00  0.00    +0.000 C 
ATOM     33  C   UNL     1       7.094  -1.552   0.000  0.00  0.00    +0.000 C 
ATOM     34  C   UNL     1       6.380  -1.140   0.000  0.00  0.00    +0.000 C 
BRANCH  30  35
ATOM     35  C   UNL     1       4.951  -2.790   0.000  0.00  0.00    +0.000 C 
BRANCH  35  36
ATOM     36  O   UNL     1       4.951  -3.615   0.000  0.00  0.00    +0.000 OA
BRANCH  36  42
ATOM     37  O   UNL     1       3.522  -3.615   0.000  0.00  0.00    +0.000 OA
ATOM     38  O   UNL     1       4.951  -5.265   0.000  0.00  0.00    +0.000 OA
ATOM     39  O   UNL     1       3.522  -6.090   0.000  0.00  0.00    +0.000 OA
ATOM     40  O   UNL     1       2.093  -5.265   0.000  0.00  0.00    +0.000 OA
ATOM     41  C   UNL     1       4.236  -4.852   0.000  0.00  0.00    +0.000 C 
ATOM     42  C   UNL     1       4.236  -4.027   0.000  0.00  0.00    +0.000 C 
ATOM     43  C   UNL     1       3.522  -5.265   0.000  0.00  0.00    +0.000 C 
ATOM     44  C   UNL     1       2.808  -4.852   0.000  0.00  0.00    +0.000 C 
ATOM     45  C   UNL     1       2.808  -4.027   0.000  0.00  0.00    +0.000 C 
BRANCH  45  47
ATOM     46  O   UNL     1       2.093  -2.790   0.000  0.00  0.00    +0.000 OA
ATOM     47  C   UNL     1       2.093  -3.615   0.000  0.00  0.00    +0.000 C 
ENDBRANCH  45  47
ENDBRANCH  36  42
ENDBRANCH  35  36
ENDBRANCH  30  35
ENDBRANCH  25  34
ENDBRANCH   4  25
TORSDOF 10
