REMARK  Name = 44260070
REMARK  8 active torsions:
REMARK  status: ('A' for Active; 'I' for Inactive)
REMARK    1  A    between atoms: O_2  and  C_20
REMARK    2  A    between atoms: O_2  and  C_22
REMARK    3  A    between atoms: O_7  and  C_24
REMARK    4  A    between atoms: O_10  and  C_29
REMARK    5  A    between atoms: O_11  and  C_33
REMARK    6  A    between atoms: O_13  and  C_35
REMARK    7  A    between atoms: C_19  and  C_21
REMARK    8  A    between atoms: C_25  and  C_28
REMARK                            x       y       z     vdW  Elec       q    Type
REMARK                         _______ _______ _______ _____ _____    ______ ____
ROOT
ATOM      1  O   UNL     1       7.847   0.801   0.000  0.00  0.00    +0.000 OA
ATOM      2  C   UNL     1       6.418  -0.849   0.000  0.00  0.00    +0.000 A 
ATOM      3  C   UNL     1       5.704  -0.436   0.000  0.00  0.00    +0.000 A 
ATOM      4  C   UNL     1       7.133  -0.436   0.000  0.00  0.00    +0.000 A 
ATOM      5  C   UNL     1       5.704   0.389   0.000  0.00  0.00    +0.000 A 
ATOM      6  C   UNL     1       7.133   0.389   0.000  0.00  0.00    +0.000 A 
ATOM      7  C   UNL     1       6.418   0.801   0.000  0.00  0.00    +0.000 A 
ENDROOT
BRANCH   5  12
ATOM      8  O   UNL     1       4.986   1.661   0.000  0.00  0.00    +0.000 OA
ATOM      9  O   UNL     1       2.784   0.411   0.000  0.00  0.00    +0.000 OA
ATOM     10  O   UNL     1       2.092   1.677   0.000  0.00  0.00    +0.000 OA
ATOM     11  O   UNL     1       3.530   4.147   0.000  0.00  0.00    +0.000 OA
ATOM     12  C   UNL     1       4.989   0.801   0.000  0.00  0.00    +0.000 A 
ATOM     13  C   UNL     1       4.244   0.375   0.000  0.00  0.00    +0.000 A 
ATOM     14  C   UNL     1       4.237   2.082   0.000  0.00  0.00    +0.000 A 
ATOM     15  C   UNL     1       3.521   1.672   0.000  0.00  0.00    +0.000 A 
ATOM     16  C   UNL     1       3.504   0.813   0.000  0.00  0.00    +0.000 A 
ATOM     17  C   UNL     1       4.240   2.907   0.000  0.00  0.00    +0.000 A 
ATOM     18  C   UNL     1       2.808   2.087   0.000  0.00  0.00    +0.000 A 
ATOM     19  C   UNL     1       2.811   2.912   0.000  0.00  0.00    +0.000 A 
ATOM     20  C   UNL     1       3.527   3.322   0.000  0.00  0.00    +0.000 A 
BRANCH  13  21
ATOM     21  O   UNL     1       4.237  -0.451   0.000  0.00  0.00    +0.000 OA
ATOM     22  C   UNL     1       3.519  -0.857   0.000  0.00  0.00    +0.000 C 
ENDBRANCH  13  21
BRANCH  17  23
ATOM     23  O   UNL     1       4.956   3.316   0.000  0.00  0.00    +0.000 OA
ATOM     24  C   UNL     1       4.959   4.141   0.000  0.00  0.00    +0.000 C 
ENDBRANCH  17  23
BRANCH  19  25
ATOM     25  O   UNL     1       2.098   3.328   0.000  0.00  0.00    +0.000 OA
ATOM     26  C   UNL     1       2.102   4.152   0.000  0.00  0.00    +0.000 C 
ENDBRANCH  19  25
ENDBRANCH   5  12
BRANCH   4  27
ATOM     27  O   UNL     1       7.847  -0.849   0.000  0.00  0.00    +0.000 OA
ATOM     28  C   UNL     1       8.562  -0.436   0.000  0.00  0.00    +0.000 C 
ENDBRANCH   4  27
BRANCH   2  29
ATOM     29  O   UNL     1       6.418  -1.674   0.000  0.00  0.00    +0.000 OA
BRANCH  29  38
ATOM     30  O   UNL     1       4.989  -1.674   0.000  0.00  0.00    +0.000 OA
ATOM     31  O   UNL     1       4.989  -4.149   0.000  0.00  0.00    +0.000 OA
ATOM     32  O   UNL     1       3.561  -3.324   0.000  0.00  0.00    +0.000 OA
ATOM     33  O   UNL     1       6.418  -3.324   0.000  0.00  0.00    +0.000 OA
ATOM     34  C   UNL     1       4.989  -3.324   0.000  0.00  0.00    +0.000 C 
ATOM     35  C   UNL     1       4.275  -2.911   0.000  0.00  0.00    +0.000 C 
ATOM     36  C   UNL     1       5.704  -2.911   0.000  0.00  0.00    +0.000 C 
ATOM     37  C   UNL     1       4.275  -2.086   0.000  0.00  0.00    +0.000 C 
ATOM     38  C   UNL     1       5.704  -2.086   0.000  0.00  0.00    +0.000 C 
BRANCH  37  40
ATOM     39  O   UNL     1       2.846  -2.086   0.000  0.00  0.00    +0.000 OA
ATOM     40  C   UNL     1       3.561  -1.674   0.000  0.00  0.00    +0.000 C 
ENDBRANCH  37  40
ENDBRANCH  29  38
ENDBRANCH   2  29
TORSDOF 8
