REMARK  Name = 44258815
REMARK  9 active torsions:
REMARK  status: ('A' for Active; 'I' for Inactive)
REMARK    1  A    between atoms: O_1  and  C_21
REMARK    2  A    between atoms: O_1  and  C_22
REMARK    3  A    between atoms: O_3  and  C_20
REMARK    4  A    between atoms: O_3  and  C_29
REMARK    5  A    between atoms: O_9  and  C_28
REMARK    6  A    between atoms: O_9  and  C_36
REMARK    7  A    between atoms: C_24  and  C_31
REMARK    8  A    between atoms: C_26  and  C_32
REMARK    9  A    between atoms: C_37  and  C_40
REMARK                            x       y       z     vdW  Elec       q    Type
REMARK                         _______ _______ _______ _____ _____    ______ ____
ROOT
ATOM      1  O   UNL     1       7.707   0.281   0.000  0.00  0.00    +0.000 OA
ATOM      2  O   UNL     1       7.707  -2.194   0.000  0.00  0.00    +0.000 OA
ATOM      3  O   UNL     1       9.136  -1.369   0.000  0.00  0.00    +0.000 OA
ATOM      4  C   UNL     1       6.992  -0.957   0.000  0.00  0.00    +0.000 C 
ATOM      5  C   UNL     1       7.707  -1.369   0.000  0.00  0.00    +0.000 C 
ATOM      6  C   UNL     1       6.992  -0.132   0.000  0.00  0.00    +0.000 C 
ATOM      7  C   UNL     1       8.421  -0.957   0.000  0.00  0.00    +0.000 C 
ATOM      8  C   UNL     1       8.421  -0.132   0.000  0.00  0.00    +0.000 C 
ENDROOT
BRANCH   6  10
ATOM      9  O   UNL     1       6.278   1.106   0.000  0.00  0.00    +0.000 OA
ATOM     10  C   UNL     1       6.278   0.281   0.000  0.00  0.00    +0.000 C 
ENDBRANCH   6  10
BRANCH   4  11
ATOM     11  O   UNL     1       6.278  -1.369   0.000  0.00  0.00    +0.000 OA
BRANCH  11  15
ATOM     12  O   UNL     1       6.945  -2.679   0.000  0.00  0.00    +0.000 OA
ATOM     13  O   UNL     1       5.380  -4.131   0.000  0.00  0.00    +0.000 OA
ATOM     14  C   UNL     1       5.610  -2.679   0.000  0.00  0.00    +0.000 C 
ATOM     15  C   UNL     1       6.278  -2.194   0.000  0.00  0.00    +0.000 C 
ATOM     16  C   UNL     1       5.865  -3.464   0.000  0.00  0.00    +0.000 C 
ATOM     17  C   UNL     1       6.690  -3.464   0.000  0.00  0.00    +0.000 C 
BRANCH  17  19
ATOM     18  O   UNL     1       7.995  -4.045   0.000  0.00  0.00    +0.000 OA
ATOM     19  C   UNL     1       7.175  -4.131   0.000  0.00  0.00    +0.000 C 
ENDBRANCH  17  19
BRANCH  14  20
ATOM     20  O   UNL     1       4.826  -2.424   0.000  0.00  0.00    +0.000 OA
BRANCH  20  25
ATOM     21  O   UNL     1       4.384  -3.783   0.000  0.00  0.00    +0.000 OA
ATOM     22  O   UNL     1       3.256  -1.914   0.000  0.00  0.00    +0.000 OA
ATOM     23  O   UNL     1       2.030  -3.018   0.000  0.00  0.00    +0.000 OA
ATOM     24  O   UNL     1       2.373  -4.633   0.000  0.00  0.00    +0.000 OA
ATOM     25  C   UNL     1       4.213  -2.976   0.000  0.00  0.00    +0.000 C 
ATOM     26  C   UNL     1       3.428  -2.721   0.000  0.00  0.00    +0.000 C 
ATOM     27  C   UNL     1       2.815  -3.273   0.000  0.00  0.00    +0.000 C 
ATOM     28  C   UNL     1       2.986  -4.080   0.000  0.00  0.00    +0.000 C 
ATOM     29  C   UNL     1       3.771  -4.335   0.000  0.00  0.00    +0.000 C 
ENDBRANCH  20  25
ENDBRANCH  14  20
ENDBRANCH  11  15
ENDBRANCH   4  11
BRANCH   8  30
ATOM     30  O   UNL     1       9.136   0.281   0.000  0.00  0.00    +0.000 OA
BRANCH  30  35
ATOM     31  O   UNL     1       9.850   2.343   0.000  0.00  0.00    +0.000 OA
ATOM     32  O   UNL     1       7.707   1.106   0.000  0.00  0.00    +0.000 OA
ATOM     33  O   UNL     1       6.961   2.341   0.000  0.00  0.00    +0.000 OA
ATOM     34  O   UNL     1       8.411   4.875   0.000  0.00  0.00    +0.000 OA
ATOM     35  C   UNL     1       9.136   1.106   0.000  0.00  0.00    +0.000 A 
ATOM     36  C   UNL     1       9.850   1.518   0.000  0.00  0.00    +0.000 A 
ATOM     37  C   UNL     1       8.421   1.518   0.000  0.00  0.00    +0.000 A 
ATOM     38  C   UNL     1       8.421   2.343   0.000  0.00  0.00    +0.000 A 
ATOM     39  C   UNL     1       9.136   2.756   0.000  0.00  0.00    +0.000 A 
ATOM     40  C   UNL     1       7.670   2.761   0.000  0.00  0.00    +0.000 A 
ATOM     41  C   UNL     1       9.149   3.615   0.000  0.00  0.00    +0.000 A 
ATOM     42  C   UNL     1       7.664   3.621   0.000  0.00  0.00    +0.000 A 
ATOM     43  C   UNL     1       8.408   4.050   0.000  0.00  0.00    +0.000 A 
BRANCH  36  45
ATOM     44  O   UNL     1      12.708  -0.132   0.000  0.00  0.00    +0.000 OA
ATOM     45  C   UNL     1      10.565   1.106   0.000  0.00  0.00    +0.000 A 
ATOM     46  C   UNL     1      10.565   0.281   0.000  0.00  0.00    +0.000 A 
ATOM     47  C   UNL     1      11.279   1.518   0.000  0.00  0.00    +0.000 A 
ATOM     48  C   UNL     1      11.279  -0.132   0.000  0.00  0.00    +0.000 A 
ATOM     49  C   UNL     1      11.993   1.106   0.000  0.00  0.00    +0.000 A 
ATOM     50  C   UNL     1      11.993   0.281   0.000  0.00  0.00    +0.000 A 
ENDBRANCH  36  45
ENDBRANCH  30  35
ENDBRANCH   8  30
TORSDOF 9
