REMARK  Name = 471694
REMARK  6 active torsions:
REMARK  status: ('A' for Active; 'I' for Inactive)
REMARK    1  A    between atoms: O_2  and  C_14
REMARK    2  A    between atoms: O_3  and  C_17
REMARK    3  A    between atoms: O_4  and  C_18
REMARK    4  A    between atoms: O_5  and  C_19
REMARK    5  A    between atoms: O_6  and  C_20
REMARK    6  A    between atoms: C_8  and  C_11
REMARK                            x       y       z     vdW  Elec       q    Type
REMARK                         _______ _______ _______ _____ _____    ______ ____
ROOT
ATOM      1  C   UNL     1       6.435   0.225   0.000  0.00  0.00    +0.000 A 
ATOM      2  C   UNL     1       7.150  -0.188   0.000  0.00  0.00    +0.000 A 
ATOM      3  C   UNL     1       6.435   1.050   0.000  0.00  0.00    +0.000 A 
ATOM      4  C   UNL     1       7.864   0.225   0.000  0.00  0.00    +0.000 A 
ATOM      5  C   UNL     1       7.150   1.462   0.000  0.00  0.00    +0.000 A 
ATOM      6  C   UNL     1       7.864   1.050   0.000  0.00  0.00    +0.000 A 
ENDROOT
BRANCH   1   9
ATOM      7  O   UNL     1       5.006  -1.425   0.000  0.00  0.00    +0.000 OA
ATOM      8  O   UNL     1       2.094  -1.445   0.000  0.00  0.00    +0.000 OA
ATOM      9  C   UNL     1       5.721  -0.188   0.000  0.00  0.00    +0.000 C 
ATOM     10  C   UNL     1       5.006   0.225   0.000  0.00  0.00    +0.000 C 
ATOM     11  C   UNL     1       5.721  -1.013   0.000  0.00  0.00    +0.000 C 
ATOM     12  C   UNL     1       4.292  -0.188   0.000  0.00  0.00    +0.000 A 
ATOM     13  C   UNL     1       4.292  -1.013   0.000  0.00  0.00    +0.000 A 
ATOM     14  C   UNL     1       3.554   0.253   0.000  0.00  0.00    +0.000 A 
ATOM     15  C   UNL     1       3.554  -1.454   0.000  0.00  0.00    +0.000 A 
ATOM     16  C   UNL     1       2.807  -0.171   0.000  0.00  0.00    +0.000 A 
ATOM     17  C   UNL     1       2.807  -1.030   0.000  0.00  0.00    +0.000 A 
BRANCH  15  18
ATOM     18  O   UNL     1       3.564  -2.279   0.000  0.00  0.00    +0.000 OA
ATOM     19  C   UNL     1       2.854  -2.700   0.000  0.00  0.00    +0.000 C 
ENDBRANCH  15  18
ENDBRANCH   1   9
BRANCH   2  20
ATOM     20  O   UNL     1       7.150  -1.013   0.000  0.00  0.00    +0.000 OA
ATOM     21  C   UNL     1       7.864  -1.425   0.000  0.00  0.00    +0.000 C 
ENDBRANCH   2  20
BRANCH   4  22
ATOM     22  O   UNL     1       8.579  -0.188   0.000  0.00  0.00    +0.000 OA
ATOM     23  C   UNL     1       9.293   0.225   0.000  0.00  0.00    +0.000 C 
ENDBRANCH   4  22
BRANCH   5  24
ATOM     24  O   UNL     1       7.150   2.287   0.000  0.00  0.00    +0.000 OA
ATOM     25  C   UNL     1       6.435   2.700   0.000  0.00  0.00    +0.000 C 
ENDBRANCH   5  24
BRANCH   6  26
ATOM     26  O   UNL     1       8.579   1.462   0.000  0.00  0.00    +0.000 OA
ATOM     27  C   UNL     1       8.579   2.287   0.000  0.00  0.00    +0.000 C 
ENDBRANCH   6  26
TORSDOF 6
