REMARK  Name = 10327769
REMARK  8 active torsions:
REMARK  status: ('A' for Active; 'I' for Inactive)
REMARK    1  A    between atoms: O_1  and  C_21
REMARK    2  A    between atoms: O_1  and  C_24
REMARK    3  A    between atoms: O_4  and  C_25
REMARK    4  A    between atoms: O_4  and  C_38
REMARK    5  A    between atoms: O_12  and  C_37
REMARK    6  A    between atoms: O_12  and  C_43
REMARK    7  A    between atoms: C_26  and  C_31
REMARK    8  A    between atoms: C_40  and  C_47
REMARK                            x       y       z     vdW  Elec       q    Type
REMARK                         _______ _______ _______ _____ _____    ______ ____
ROOT
ATOM      1  O   UNL     1       6.389   1.128   0.000  0.00  0.00    +0.000 OA
ATOM      2  O   UNL     1       4.245  -0.110   0.000  0.00  0.00    +0.000 OA
ATOM      3  O   UNL     1       3.499   1.125   0.000  0.00  0.00    +0.000 OA
ATOM      4  C   UNL     1       5.674  -0.110   0.000  0.00  0.00    +0.000 A 
ATOM      5  C   UNL     1       6.389   0.303   0.000  0.00  0.00    +0.000 A 
ATOM      6  C   UNL     1       4.960   0.303   0.000  0.00  0.00    +0.000 A 
ATOM      7  C   UNL     1       4.960   1.128   0.000  0.00  0.00    +0.000 A 
ATOM      8  C   UNL     1       4.947   2.835   0.000  0.00  0.00    +0.000 A 
ATOM      9  C   UNL     1       5.674   1.540   0.000  0.00  0.00    +0.000 A 
ATOM     10  C   UNL     1       5.688   2.400   0.000  0.00  0.00    +0.000 A 
ATOM     11  C   UNL     1       4.209   1.546   0.000  0.00  0.00    +0.000 A 
ATOM     12  C   UNL     1       4.202   2.405   0.000  0.00  0.00    +0.000 A 
ENDROOT
BRANCH   5  15
ATOM     13  O   UNL     1       9.247   0.303   0.000  0.00  0.00    +0.000 OA
ATOM     14  O   UNL     1       9.247  -1.347   0.000  0.00  0.00    +0.000 OA
ATOM     15  C   UNL     1       7.103  -0.110   0.000  0.00  0.00    +0.000 A 
ATOM     16  C   UNL     1       7.818   0.303   0.000  0.00  0.00    +0.000 A 
ATOM     17  C   UNL     1       7.103  -0.935   0.000  0.00  0.00    +0.000 A 
ATOM     18  C   UNL     1       8.532  -0.110   0.000  0.00  0.00    +0.000 A 
ATOM     19  C   UNL     1       7.818  -1.347   0.000  0.00  0.00    +0.000 A 
ATOM     20  C   UNL     1       8.532  -0.935   0.000  0.00  0.00    +0.000 A 
ENDBRANCH   5  15
BRANCH   4  21
ATOM     21  O   UNL     1       5.674  -0.935   0.000  0.00  0.00    +0.000 OA
BRANCH  21  28
ATOM     22  O   UNL     1       4.245  -0.935   0.000  0.00  0.00    +0.000 OA
ATOM     23  O   UNL     1       4.245  -3.410   0.000  0.00  0.00    +0.000 OA
ATOM     24  O   UNL     1       2.816  -2.585   0.000  0.00  0.00    +0.000 OA
ATOM     25  C   UNL     1       4.960  -2.172   0.000  0.00  0.00    +0.000 C 
ATOM     26  C   UNL     1       4.245  -2.585   0.000  0.00  0.00    +0.000 C 
ATOM     27  C   UNL     1       3.531  -2.172   0.000  0.00  0.00    +0.000 C 
ATOM     28  C   UNL     1       4.960  -1.347   0.000  0.00  0.00    +0.000 C 
ATOM     29  C   UNL     1       3.531  -1.347   0.000  0.00  0.00    +0.000 C 
BRANCH  29  31
ATOM     30  O   UNL     1       2.102  -1.347   0.000  0.00  0.00    +0.000 OA
ATOM     31  C   UNL     1       2.816  -0.935   0.000  0.00  0.00    +0.000 C 
ENDBRANCH  29  31
BRANCH  25  32
ATOM     32  O   UNL     1       5.674  -2.585   0.000  0.00  0.00    +0.000 OA
BRANCH  32  37
ATOM     33  O   UNL     1       4.960  -3.822   0.000  0.00  0.00    +0.000 OA
ATOM     34  O   UNL     1       7.103  -3.410   0.000  0.00  0.00    +0.000 OA
ATOM     35  O   UNL     1       7.103  -5.060   0.000  0.00  0.00    +0.000 OA
ATOM     36  O   UNL     1       5.674  -5.885   0.000  0.00  0.00    +0.000 OA
ATOM     37  C   UNL     1       5.674  -3.410   0.000  0.00  0.00    +0.000 C 
ATOM     38  C   UNL     1       6.389  -3.822   0.000  0.00  0.00    +0.000 C 
ATOM     39  C   UNL     1       6.389  -4.647   0.000  0.00  0.00    +0.000 C 
ATOM     40  C   UNL     1       5.674  -5.060   0.000  0.00  0.00    +0.000 C 
ATOM     41  C   UNL     1       4.960  -4.647   0.000  0.00  0.00    +0.000 C 
ATOM     42  C   UNL     1       4.245  -5.060   0.000  0.00  0.00    +0.000 C 
ENDBRANCH  32  37
ENDBRANCH  25  32
ENDBRANCH  21  28
ENDBRANCH   4  21
BRANCH   8  43
ATOM     43  O   UNL     1       4.950   3.660   0.000  0.00  0.00    +0.000 OA
BRANCH  43  52
ATOM     44  O   UNL     1       4.240   4.900   0.000  0.00  0.00    +0.000 OA
ATOM     45  O   UNL     1       2.092   3.671   0.000  0.00  0.00    +0.000 OA
ATOM     46  O   UNL     1       2.098   5.321   0.000  0.00  0.00    +0.000 OA
ATOM     47  O   UNL     1       3.518   2.841   0.000  0.00  0.00    +0.000 OA
ATOM     48  C   UNL     1       2.808   4.081   0.000  0.00  0.00    +0.000 C 
ATOM     49  C   UNL     1       2.811   4.906   0.000  0.00  0.00    +0.000 C 
ATOM     50  C   UNL     1       3.521   3.666   0.000  0.00  0.00    +0.000 C 
ATOM     51  C   UNL     1       3.527   5.316   0.000  0.00  0.00    +0.000 C 
ATOM     52  C   UNL     1       4.237   4.075   0.000  0.00  0.00    +0.000 C 
ATOM     53  C   UNL     1       3.530   6.141   0.000  0.00  0.00    +0.000 C 
ENDBRANCH  43  52
ENDBRANCH   8  43
TORSDOF 8
