REMARK  Name = 100927068
REMARK  3 active torsions:
REMARK  status: ('A' for Active; 'I' for Inactive)
REMARK    1  A    between atoms: O_1  and  C_13
REMARK    2  A    between atoms: O_1  and  C_16
REMARK    3  A    between atoms: C_17  and  C_20
REMARK                            x       y       z     vdW  Elec       q    Type
REMARK                         _______ _______ _______ _____ _____    ______ ____
ROOT
ATOM      1  O   UNL     1       5.006   1.165   0.000  0.00  0.00    +0.000 OA
ATOM      2  O   UNL     1       5.006  -1.310   0.000  0.00  0.00    +0.000 OA
ATOM      3  O   UNL     1       3.564  -1.339   0.000  0.00  0.00    +0.000 OA
ATOM      4  O   UNL     1       2.094   1.185   0.000  0.00  0.00    +0.000 OA
ATOM      5  C   UNL     1       5.721  -0.073   0.000  0.00  0.00    +0.000 C 
ATOM      6  C   UNL     1       5.721   0.752   0.000  0.00  0.00    +0.000 C 
ATOM      7  C   UNL     1       5.006  -0.485   0.000  0.00  0.00    +0.000 C 
ATOM      8  C   UNL     1       4.292  -0.073   0.000  0.00  0.00    +0.000 A 
ATOM      9  C   UNL     1       4.292   0.752   0.000  0.00  0.00    +0.000 A 
ATOM     10  C   UNL     1       3.554  -0.514   0.000  0.00  0.00    +0.000 A 
ATOM     11  C   UNL     1       3.554   1.194   0.000  0.00  0.00    +0.000 A 
ATOM     12  C   UNL     1       2.807  -0.090   0.000  0.00  0.00    +0.000 A 
ATOM     13  C   UNL     1       2.807   0.769   0.000  0.00  0.00    +0.000 A 
ENDROOT
BRANCH   6  16
ATOM     14  O   UNL     1       7.150   3.227   0.000  0.00  0.00    +0.000 OA
ATOM     15  O   UNL     1       8.579   2.402   0.000  0.00  0.00    +0.000 OA
ATOM     16  C   UNL     1       6.435   1.165   0.000  0.00  0.00    +0.000 A 
ATOM     17  C   UNL     1       6.435   1.990   0.000  0.00  0.00    +0.000 A 
ATOM     18  C   UNL     1       7.150   0.752   0.000  0.00  0.00    +0.000 A 
ATOM     19  C   UNL     1       7.150   2.402   0.000  0.00  0.00    +0.000 A 
ATOM     20  C   UNL     1       7.864   1.165   0.000  0.00  0.00    +0.000 A 
ATOM     21  C   UNL     1       7.864   1.990   0.000  0.00  0.00    +0.000 A 
ENDBRANCH   6  16
BRANCH   5  22
ATOM     22  O   UNL     1       6.435  -0.485   0.000  0.00  0.00    +0.000 OA
BRANCH  22  28
ATOM     23  O   UNL     1       5.721  -1.723   0.000  0.00  0.00    +0.000 OA
ATOM     24  O   UNL     1       7.864  -1.310   0.000  0.00  0.00    +0.000 OA
ATOM     25  O   UNL     1       7.864  -2.960   0.000  0.00  0.00    +0.000 OA
ATOM     26  O   UNL     1       6.435  -3.785   0.000  0.00  0.00    +0.000 OA
ATOM     27  C   UNL     1       7.150  -1.723   0.000  0.00  0.00    +0.000 C 
ATOM     28  C   UNL     1       6.435  -1.310   0.000  0.00  0.00    +0.000 C 
ATOM     29  C   UNL     1       7.150  -2.548   0.000  0.00  0.00    +0.000 C 
ATOM     30  C   UNL     1       6.435  -2.960   0.000  0.00  0.00    +0.000 C 
ATOM     31  C   UNL     1       5.721  -2.548   0.000  0.00  0.00    +0.000 C 
ENDBRANCH  22  28
ENDBRANCH   5  22
TORSDOF 3
