REMARK  Name = 102515002
REMARK  9 active torsions:
REMARK  status: ('A' for Active; 'I' for Inactive)
REMARK    1  A    between atoms: O_1  and  C_21
REMARK    2  A    between atoms: O_1  and  C_26
REMARK    3  A    between atoms: O_6  and  C_33
REMARK    4  A    between atoms: O_6  and  C_34
REMARK    5  A    between atoms: C_22  and  C_28
REMARK    6  A    between atoms: C_25  and  C_32
REMARK    7  A    between atoms: C_31  and  C_40
REMARK    8  A    between atoms: C_39  and  C_44
REMARK    9  A    between atoms: C_47  and  C_48
REMARK                            x       y       z     vdW  Elec       q    Type
REMARK                         _______ _______ _______ _____ _____    ______ ____
ROOT
ATOM      1  O   UNL     1       7.149  -1.425   0.000  0.00  0.00    +0.000 OA
ATOM      2  O   UNL     1       8.601   1.079   0.000  0.00  0.00    +0.000 OA
ATOM      3  O   UNL     1       8.592  -1.453   0.000  0.00  0.00    +0.000 OA
ATOM      4  C   UNL     1       6.435  -0.187   0.000  0.00  0.00    +0.000 A 
ATOM      5  C   UNL     1       6.435   0.638   0.000  0.00  0.00    +0.000 A 
ATOM      6  C   UNL     1       7.149  -0.600   0.000  0.00  0.00    +0.000 A 
ATOM      7  C   UNL     1       7.864  -0.187   0.000  0.00  0.00    +0.000 A 
ATOM      8  C   UNL     1       7.149   1.050   0.000  0.00  0.00    +0.000 A 
ATOM      9  C   UNL     1       7.864   0.638   0.000  0.00  0.00    +0.000 A 
ATOM     10  C   UNL     1       8.601  -0.628   0.000  0.00  0.00    +0.000 A 
ATOM     11  C   UNL     1       9.349  -0.204   0.000  0.00  0.00    +0.000 A 
ATOM     12  C   UNL     1       9.349   0.655   0.000  0.00  0.00    +0.000 A 
ENDROOT
BRANCH   4  17
ATOM     13  O   UNL     1       5.006  -0.187   0.000  0.00  0.00    +0.000 OA
ATOM     14  O   UNL     1       5.006  -2.662   0.000  0.00  0.00    +0.000 OA
ATOM     15  O   UNL     1       3.577  -1.837   0.000  0.00  0.00    +0.000 OA
ATOM     16  C   UNL     1       5.720  -1.425   0.000  0.00  0.00    +0.000 C 
ATOM     17  C   UNL     1       5.720  -0.600   0.000  0.00  0.00    +0.000 C 
ATOM     18  C   UNL     1       5.006  -1.837   0.000  0.00  0.00    +0.000 C 
ATOM     19  C   UNL     1       4.291  -1.425   0.000  0.00  0.00    +0.000 C 
ATOM     20  C   UNL     1       4.291  -0.600   0.000  0.00  0.00    +0.000 C 
BRANCH  20  22
ATOM     21  O   UNL     1       2.862  -0.600   0.000  0.00  0.00    +0.000 OA
ATOM     22  C   UNL     1       3.577  -0.187   0.000  0.00  0.00    +0.000 C 
ENDBRANCH  20  22
BRANCH  16  23
ATOM     23  O   UNL     1       6.435  -1.837   0.000  0.00  0.00    +0.000 OA
BRANCH  23  28
ATOM     24  O   UNL     1       5.720  -3.075   0.000  0.00  0.00    +0.000 OA
ATOM     25  O   UNL     1       7.864  -2.662   0.000  0.00  0.00    +0.000 OA
ATOM     26  O   UNL     1       7.864  -4.312   0.000  0.00  0.00    +0.000 OA
ATOM     27  O   UNL     1       6.435  -5.137   0.000  0.00  0.00    +0.000 OA
ATOM     28  C   UNL     1       6.435  -2.662   0.000  0.00  0.00    +0.000 C 
ATOM     29  C   UNL     1       7.149  -3.075   0.000  0.00  0.00    +0.000 C 
ATOM     30  C   UNL     1       7.149  -3.900   0.000  0.00  0.00    +0.000 C 
ATOM     31  C   UNL     1       6.435  -4.312   0.000  0.00  0.00    +0.000 C 
ATOM     32  C   UNL     1       5.720  -3.900   0.000  0.00  0.00    +0.000 C 
BRANCH  32  34
ATOM     33  O   UNL     1       5.006  -5.137   0.000  0.00  0.00    +0.000 OA
ATOM     34  C   UNL     1       5.006  -4.312   0.000  0.00  0.00    +0.000 C 
ENDBRANCH  32  34
ENDBRANCH  23  28
ENDBRANCH  16  23
ENDBRANCH   4  17
BRANCH  12  36
ATOM     35  O   UNL     1      12.200   2.316   0.000  0.00  0.00    +0.000 OA
ATOM     36  C   UNL     1      10.062   1.070   0.000  0.00  0.00    +0.000 A 
ATOM     37  C   UNL     1      10.058   1.895   0.000  0.00  0.00    +0.000 A 
ATOM     38  C   UNL     1      10.778   0.660   0.000  0.00  0.00    +0.000 A 
ATOM     39  C   UNL     1      10.771   2.310   0.000  0.00  0.00    +0.000 A 
ATOM     40  C   UNL     1      11.491   1.076   0.000  0.00  0.00    +0.000 A 
ATOM     41  C   UNL     1      11.487   1.901   0.000  0.00  0.00    +0.000 A 
ENDBRANCH  12  36
BRANCH   5  42
ATOM     42  O   UNL     1       5.720   1.050   0.000  0.00  0.00    +0.000 OA
BRANCH  42  47
ATOM     43  O   UNL     1       6.435   2.288   0.000  0.00  0.00    +0.000 OA
ATOM     44  O   UNL     1       4.291   1.875   0.000  0.00  0.00    +0.000 OA
ATOM     45  O   UNL     1       4.291   3.525   0.000  0.00  0.00    +0.000 OA
ATOM     46  O   UNL     1       5.720   4.350   0.000  0.00  0.00    +0.000 OA
ATOM     47  C   UNL     1       5.720   1.875   0.000  0.00  0.00    +0.000 C 
ATOM     48  C   UNL     1       5.006   2.288   0.000  0.00  0.00    +0.000 C 
ATOM     49  C   UNL     1       5.006   3.113   0.000  0.00  0.00    +0.000 C 
ATOM     50  C   UNL     1       5.720   3.525   0.000  0.00  0.00    +0.000 C 
ATOM     51  C   UNL     1       6.435   3.113   0.000  0.00  0.00    +0.000 C 
BRANCH  51  53
ATOM     52  O   UNL     1       7.864   3.113   0.000  0.00  0.00    +0.000 OA
ATOM     53  C   UNL     1       7.149   3.525   0.000  0.00  0.00    +0.000 C 
ENDBRANCH  51  53
ENDBRANCH  42  47
ENDBRANCH   5  42
TORSDOF 9
