REMARK  Name = 10456395
REMARK  4 active torsions:
REMARK  status: ('A' for Active; 'I' for Inactive)
REMARK    1  A    between atoms: O_2  and  C_16
REMARK    2  A    between atoms: O_2  and  C_19
REMARK    3  A    between atoms: C_15  and  C_17
REMARK    4  A    between atoms: C_18  and  C_27
REMARK                            x       y       z     vdW  Elec       q    Type
REMARK                         _______ _______ _______ _____ _____    ______ ____
ROOT
ATOM      1  O   UNL     1       7.218   1.213   0.000  0.00  0.00    +0.000 OA
ATOM      2  O   UNL     1       8.654  -0.432   0.000  0.00  0.00    +0.000 OA
ATOM      3  O   UNL     1       5.786  -1.296   0.000  0.00  0.00    +0.000 OA
ATOM      4  O   UNL     1       7.228  -1.262   0.000  0.00  0.00    +0.000 OA
ATOM      5  C   UNL     1       7.935   0.803   0.000  0.00  0.00    +0.000 C 
ATOM      6  C   UNL     1       5.021   0.809   0.000  0.00  0.00    +0.000 A 
ATOM      7  C   UNL     1       7.938  -0.022   0.000  0.00  0.00    +0.000 C 
ATOM      8  C   UNL     1       6.506   0.798   0.000  0.00  0.00    +0.000 A 
ATOM      9  C   UNL     1       6.509  -0.027   0.000  0.00  0.00    +0.000 A 
ATOM     10  C   UNL     1       5.766   1.236   0.000  0.00  0.00    +0.000 A 
ATOM     11  C   UNL     1       7.225  -0.437   0.000  0.00  0.00    +0.000 C 
ATOM     12  C   UNL     1       5.024  -0.050   0.000  0.00  0.00    +0.000 A 
ATOM     13  C   UNL     1       5.773  -0.471   0.000  0.00  0.00    +0.000 A 
ENDROOT
BRANCH   5  15
ATOM     14  O   UNL     1      10.786   2.464   0.000  0.00  0.00    +0.000 OA
ATOM     15  C   UNL     1       8.647   1.218   0.000  0.00  0.00    +0.000 A 
ATOM     16  C   UNL     1       9.364   0.809   0.000  0.00  0.00    +0.000 A 
ATOM     17  C   UNL     1       8.644   2.043   0.000  0.00  0.00    +0.000 A 
ATOM     18  C   UNL     1      10.076   1.224   0.000  0.00  0.00    +0.000 A 
ATOM     19  C   UNL     1       9.357   2.459   0.000  0.00  0.00    +0.000 A 
ATOM     20  C   UNL     1      10.073   2.049   0.000  0.00  0.00    +0.000 A 
ENDBRANCH   5  15
BRANCH   6  21
ATOM     21  O   UNL     1       4.306   1.222   0.000  0.00  0.00    +0.000 OA
BRANCH  21  30
ATOM     22  O   UNL     1       3.592  -0.016   0.000  0.00  0.00    +0.000 OA
ATOM     23  O   UNL     1       1.448   1.222   0.000  0.00  0.00    +0.000 OA
ATOM     24  O   UNL     1       1.448  -0.428   0.000  0.00  0.00    +0.000 OA
ATOM     25  O   UNL     1       2.877   2.047   0.000  0.00  0.00    +0.000 OA
ATOM     26  C   UNL     1       2.163   0.809   0.000  0.00  0.00    +0.000 C 
ATOM     27  C   UNL     1       2.163  -0.016   0.000  0.00  0.00    +0.000 C 
ATOM     28  C   UNL     1       2.877   1.222   0.000  0.00  0.00    +0.000 C 
ATOM     29  C   UNL     1       2.877  -0.428   0.000  0.00  0.00    +0.000 C 
ATOM     30  C   UNL     1       3.592   0.809   0.000  0.00  0.00    +0.000 C 
BRANCH  29  32
ATOM     31  O   UNL     1       2.163  -1.666   0.000  0.00  0.00    +0.000 OA
ATOM     32  C   UNL     1       2.877  -1.253   0.000  0.00  0.00    +0.000 C 
ENDBRANCH  29  32
ENDBRANCH  21  30
ENDBRANCH   6  21
TORSDOF 4
