REMARK  Name = 5318717
REMARK  4 active torsions:
REMARK  status: ('A' for Active; 'I' for Inactive)
REMARK    1  A    between atoms: O_2  and  C_14
REMARK    2  A    between atoms: O_2  and  C_16
REMARK    3  A    between atoms: C_13  and  C_15
REMARK    4  A    between atoms: C_17  and  C_21
REMARK                            x       y       z     vdW  Elec       q    Type
REMARK                         _______ _______ _______ _____ _____    ______ ____
ROOT
ATOM      1  O   UNL     1       4.935   0.836   0.000  0.00  0.00    +0.000 OA
ATOM      2  O   UNL     1       4.936  -1.639   0.000  0.00  0.00    +0.000 OA
ATOM      3  O   UNL     1       3.493  -1.667   0.000  0.00  0.00    +0.000 OA
ATOM      4  O   UNL     1       2.023   0.856   0.000  0.00  0.00    +0.000 OA
ATOM      5  C   UNL     1       5.650  -0.401   0.000  0.00  0.00    +0.000 A 
ATOM      6  C   UNL     1       5.650   0.424   0.000  0.00  0.00    +0.000 A 
ATOM      7  C   UNL     1       4.936  -0.814   0.000  0.00  0.00    +0.000 A 
ATOM      8  C   UNL     1       4.221  -0.401   0.000  0.00  0.00    +0.000 A 
ATOM      9  C   UNL     1       4.221   0.424   0.000  0.00  0.00    +0.000 A 
ATOM     10  C   UNL     1       3.483  -0.842   0.000  0.00  0.00    +0.000 A 
ATOM     11  C   UNL     1       3.483   0.865   0.000  0.00  0.00    +0.000 A 
ATOM     12  C   UNL     1       2.736  -0.418   0.000  0.00  0.00    +0.000 A 
ATOM     13  C   UNL     1       2.736   0.441   0.000  0.00  0.00    +0.000 A 
ENDROOT
BRANCH   6  15
ATOM     14  O   UNL     1       8.508   2.074   0.000  0.00  0.00    +0.000 OA
ATOM     15  C   UNL     1       6.364   0.836   0.000  0.00  0.00    +0.000 A 
ATOM     16  C   UNL     1       7.079   0.424   0.000  0.00  0.00    +0.000 A 
ATOM     17  C   UNL     1       6.364   1.661   0.000  0.00  0.00    +0.000 A 
ATOM     18  C   UNL     1       7.793   0.836   0.000  0.00  0.00    +0.000 A 
ATOM     19  C   UNL     1       7.079   2.074   0.000  0.00  0.00    +0.000 A 
ATOM     20  C   UNL     1       7.793   1.661   0.000  0.00  0.00    +0.000 A 
ENDBRANCH   6  15
BRANCH   5  21
ATOM     21  O   UNL     1       6.364  -0.814   0.000  0.00  0.00    +0.000 OA
BRANCH  21  28
ATOM     22  O   UNL     1       5.697  -2.124   0.000  0.00  0.00    +0.000 OA
ATOM     23  O   UNL     1       7.262  -3.576   0.000  0.00  0.00    +0.000 OA
ATOM     24  O   UNL     1       7.816  -1.869   0.000  0.00  0.00    +0.000 OA
ATOM     25  C   UNL     1       6.777  -2.908   0.000  0.00  0.00    +0.000 C 
ATOM     26  C   UNL     1       7.032  -2.124   0.000  0.00  0.00    +0.000 C 
ATOM     27  C   UNL     1       5.952  -2.908   0.000  0.00  0.00    +0.000 C 
ATOM     28  C   UNL     1       6.364  -1.639   0.000  0.00  0.00    +0.000 C 
BRANCH  27  30
ATOM     29  O   UNL     1       5.802  -4.329   0.000  0.00  0.00    +0.000 OA
ATOM     30  C   UNL     1       5.467  -3.576   0.000  0.00  0.00    +0.000 C 
ENDBRANCH  27  30
ENDBRANCH  21  28
ENDBRANCH   5  21
TORSDOF 4
