REMARK  Name = 102514991
REMARK  6 active torsions:
REMARK  status: ('A' for Active; 'I' for Inactive)
REMARK    1  A    between atoms: O_3  and  C_25
REMARK    2  A    between atoms: O_3  and  C_27
REMARK    3  A    between atoms: C_16  and  C_21
REMARK    4  A    between atoms: C_20  and  C_28
REMARK    5  A    between atoms: C_26  and  C_30
REMARK    6  A    between atoms: C_36  and  C_37
REMARK                            x       y       z     vdW  Elec       q    Type
REMARK                         _______ _______ _______ _____ _____    ______ ____
ROOT
ATOM      1  O   UNL     1       5.886  -2.328   0.000  0.00  0.00    +0.000 OA
ATOM      2  O   UNL     1       7.338   0.176   0.000  0.00  0.00    +0.000 OA
ATOM      3  O   UNL     1       7.328  -2.356   0.000  0.00  0.00    +0.000 OA
ATOM      4  C   UNL     1       5.171  -1.090   0.000  0.00  0.00    +0.000 A 
ATOM      5  C   UNL     1       5.171  -0.265   0.000  0.00  0.00    +0.000 A 
ATOM      6  C   UNL     1       5.886  -1.503   0.000  0.00  0.00    +0.000 A 
ATOM      7  C   UNL     1       5.886   0.147   0.000  0.00  0.00    +0.000 A 
ATOM      8  C   UNL     1       6.600  -1.090   0.000  0.00  0.00    +0.000 A 
ATOM      9  C   UNL     1       6.600  -0.265   0.000  0.00  0.00    +0.000 A 
ATOM     10  C   UNL     1       7.338  -1.531   0.000  0.00  0.00    +0.000 A 
ATOM     11  C   UNL     1       8.085  -1.107   0.000  0.00  0.00    +0.000 A 
ATOM     12  C   UNL     1       8.085  -0.248   0.000  0.00  0.00    +0.000 A 
ENDROOT
BRANCH   4  17
ATOM     13  O   UNL     1       4.457  -2.328   0.000  0.00  0.00    +0.000 OA
ATOM     14  O   UNL     1       3.743  -0.265   0.000  0.00  0.00    +0.000 OA
ATOM     15  O   UNL     1       2.314  -1.090   0.000  0.00  0.00    +0.000 OA
ATOM     16  O   UNL     1       2.314  -2.740   0.000  0.00  0.00    +0.000 OA
ATOM     17  C   UNL     1       4.457  -1.503   0.000  0.00  0.00    +0.000 C 
ATOM     18  C   UNL     1       3.743  -1.090   0.000  0.00  0.00    +0.000 C 
ATOM     19  C   UNL     1       3.028  -1.503   0.000  0.00  0.00    +0.000 C 
ATOM     20  C   UNL     1       3.028  -2.328   0.000  0.00  0.00    +0.000 C 
ATOM     21  C   UNL     1       3.743  -2.740   0.000  0.00  0.00    +0.000 C 
BRANCH  21  23
ATOM     22  O   UNL     1       3.028  -3.978   0.000  0.00  0.00    +0.000 OA
ATOM     23  C   UNL     1       3.743  -3.565   0.000  0.00  0.00    +0.000 C 
ENDBRANCH  21  23
ENDBRANCH   4  17
BRANCH  12  25
ATOM     24  O   UNL     1      10.937   1.413   0.000  0.00  0.00    +0.000 OA
ATOM     25  C   UNL     1       8.798   0.167   0.000  0.00  0.00    +0.000 A 
ATOM     26  C   UNL     1       8.795   0.992   0.000  0.00  0.00    +0.000 A 
ATOM     27  C   UNL     1       9.514  -0.243   0.000  0.00  0.00    +0.000 A 
ATOM     28  C   UNL     1       9.508   1.407   0.000  0.00  0.00    +0.000 A 
ATOM     29  C   UNL     1      10.227   0.173   0.000  0.00  0.00    +0.000 A 
ATOM     30  C   UNL     1      10.224   0.998   0.000  0.00  0.00    +0.000 A 
ENDBRANCH  12  25
BRANCH   5  31
ATOM     31  O   UNL     1       4.457   0.147   0.000  0.00  0.00    +0.000 OA
BRANCH  31  39
ATOM     32  O   UNL     1       5.171   1.385   0.000  0.00  0.00    +0.000 OA
ATOM     33  O   UNL     1       3.028   2.622   0.000  0.00  0.00    +0.000 OA
ATOM     34  O   UNL     1       3.028   0.972   0.000  0.00  0.00    +0.000 OA
ATOM     35  O   UNL     1       4.457   3.447   0.000  0.00  0.00    +0.000 OA
ATOM     36  C   UNL     1       3.743   2.210   0.000  0.00  0.00    +0.000 C 
ATOM     37  C   UNL     1       3.743   1.385   0.000  0.00  0.00    +0.000 C 
ATOM     38  C   UNL     1       4.457   2.622   0.000  0.00  0.00    +0.000 C 
ATOM     39  C   UNL     1       4.457   0.972   0.000  0.00  0.00    +0.000 C 
ATOM     40  C   UNL     1       5.171   2.210   0.000  0.00  0.00    +0.000 C 
BRANCH  40  42
ATOM     41  O   UNL     1       5.886   3.447   0.000  0.00  0.00    +0.000 OA
ATOM     42  C   UNL     1       5.886   2.622   0.000  0.00  0.00    +0.000 C 
ENDBRANCH  40  42
ENDBRANCH  31  39
ENDBRANCH   5  31
TORSDOF 6
