REMARK  Name = 5490298
REMARK  7 active torsions:
REMARK  status: ('A' for Active; 'I' for Inactive)
REMARK    1  A    between atoms: O_3  and  C_25
REMARK    2  A    between atoms: O_3  and  C_29
REMARK    3  A    between atoms: O_6  and  C_26
REMARK    4  A    between atoms: O_6  and  C_30
REMARK    5  A    between atoms: C_21  and  C_27
REMARK    6  A    between atoms: C_23  and  C_28
REMARK    7  A    between atoms: C_36  and  C_39
REMARK                            x       y       z     vdW  Elec       q    Type
REMARK                         _______ _______ _______ _____ _____    ______ ____
ROOT
ATOM      1  O   UNL     1       7.429  -0.023   0.000  0.00  0.00    +0.000 OA
ATOM      2  O   UNL     1       5.997  -2.532   0.000  0.00  0.00    +0.000 OA
ATOM      3  O   UNL     1       7.439  -2.498   0.000  0.00  0.00    +0.000 OA
ATOM      4  C   UNL     1       5.231  -0.426   0.000  0.00  0.00    +0.000 A 
ATOM      5  C   UNL     1       5.977   0.000   0.000  0.00  0.00    +0.000 A 
ATOM      6  C   UNL     1       5.235  -1.286   0.000  0.00  0.00    +0.000 A 
ATOM      7  C   UNL     1       6.716  -0.438   0.000  0.00  0.00    +0.000 A 
ATOM      8  C   UNL     1       6.720  -1.263   0.000  0.00  0.00    +0.000 A 
ATOM      9  C   UNL     1       5.984  -1.707   0.000  0.00  0.00    +0.000 A 
ATOM     10  C   UNL     1       8.145  -0.432   0.000  0.00  0.00    +0.000 A 
ATOM     11  C   UNL     1       7.436  -1.673   0.000  0.00  0.00    +0.000 A 
ATOM     12  C   UNL     1       8.149  -1.257   0.000  0.00  0.00    +0.000 A 
ENDROOT
BRANCH  10  17
ATOM     13  O   UNL     1      10.997   1.229   0.000  0.00  0.00    +0.000 OA
ATOM     14  C   UNL     1       9.568   1.223   0.000  0.00  0.00    +0.000 A 
ATOM     15  C   UNL     1       8.855   0.808   0.000  0.00  0.00    +0.000 A 
ATOM     16  C   UNL     1      10.284   0.813   0.000  0.00  0.00    +0.000 A 
ATOM     17  C   UNL     1       8.858  -0.017   0.000  0.00  0.00    +0.000 A 
ATOM     18  C   UNL     1      10.287  -0.012   0.000  0.00  0.00    +0.000 A 
ATOM     19  C   UNL     1       9.574  -0.427   0.000  0.00  0.00    +0.000 A 
BRANCH  14  20
ATOM     20  O   UNL     1       9.565   2.048   0.000  0.00  0.00    +0.000 OA
BRANCH  20  29
ATOM     21  O   UNL     1      10.994   2.054   0.000  0.00  0.00    +0.000 OA
ATOM     22  O   UNL     1      12.416   3.709   0.000  0.00  0.00    +0.000 OA
ATOM     23  O   UNL     1      10.984   4.529   0.000  0.00  0.00    +0.000 OA
ATOM     24  O   UNL     1       9.558   3.698   0.000  0.00  0.00    +0.000 OA
ATOM     25  C   UNL     1      11.703   3.294   0.000  0.00  0.00    +0.000 C 
ATOM     26  C   UNL     1      10.987   3.704   0.000  0.00  0.00    +0.000 C 
ATOM     27  C   UNL     1      11.707   2.469   0.000  0.00  0.00    +0.000 C 
ATOM     28  C   UNL     1      10.274   3.288   0.000  0.00  0.00    +0.000 C 
ATOM     29  C   UNL     1      10.278   2.463   0.000  0.00  0.00    +0.000 C 
BRANCH  27  31
ATOM     30  O   UNL     1      12.426   1.234   0.000  0.00  0.00    +0.000 OA
ATOM     31  C   UNL     1      12.423   2.059   0.000  0.00  0.00    +0.000 C 
ENDBRANCH  27  31
ENDBRANCH  20  29
ENDBRANCH  14  20
ENDBRANCH  10  17
BRANCH   4  32
ATOM     32  O   UNL     1       4.517  -0.014   0.000  0.00  0.00    +0.000 OA
BRANCH  32  41
ATOM     33  O   UNL     1       3.802  -1.252   0.000  0.00  0.00    +0.000 OA
ATOM     34  O   UNL     1       1.659  -0.014   0.000  0.00  0.00    +0.000 OA
ATOM     35  O   UNL     1       1.659  -1.664   0.000  0.00  0.00    +0.000 OA
ATOM     36  O   UNL     1       3.088   0.811   0.000  0.00  0.00    +0.000 OA
ATOM     37  C   UNL     1       2.373  -0.426   0.000  0.00  0.00    +0.000 C 
ATOM     38  C   UNL     1       2.373  -1.252   0.000  0.00  0.00    +0.000 C 
ATOM     39  C   UNL     1       3.088  -1.664   0.000  0.00  0.00    +0.000 C 
ATOM     40  C   UNL     1       3.088  -0.014   0.000  0.00  0.00    +0.000 C 
ATOM     41  C   UNL     1       3.803  -0.426   0.000  0.00  0.00    +0.000 C 
BRANCH  39  43
ATOM     42  O   UNL     1       2.373  -2.901   0.000  0.00  0.00    +0.000 OA
ATOM     43  C   UNL     1       3.088  -2.489   0.000  0.00  0.00    +0.000 C 
ENDBRANCH  39  43
ENDBRANCH  32  41
ENDBRANCH   4  32
TORSDOF 7
