REMARK  Name = 44258095
REMARK  6 active torsions:
REMARK  status: ('A' for Active; 'I' for Inactive)
REMARK    1  A    between atoms: O_3  and  C_22
REMARK    2  A    between atoms: O_3  and  C_29
REMARK    3  A    between atoms: O_7  and  C_26
REMARK    4  A    between atoms: O_7  and  C_30
REMARK    5  A    between atoms: C_25  and  C_28
REMARK    6  A    between atoms: C_36  and  C_41
REMARK                            x       y       z     vdW  Elec       q    Type
REMARK                         _______ _______ _______ _____ _____    ______ ____
ROOT
ATOM      1  O   UNL     1       5.212   0.656   0.000  0.00  0.00    +0.000 OA
ATOM      2  O   UNL     1       3.726  -1.822   0.000  0.00  0.00    +0.000 OA
ATOM      3  O   UNL     1       5.168  -1.818   0.000  0.00  0.00    +0.000 OA
ATOM      4  C   UNL     1       3.006   0.299   0.000  0.00  0.00    +0.000 A 
ATOM      5  C   UNL     1       3.760   0.710   0.000  0.00  0.00    +0.000 A 
ATOM      6  C   UNL     1       2.991  -0.560   0.000  0.00  0.00    +0.000 A 
ATOM      7  C   UNL     1       4.490   0.257   0.000  0.00  0.00    +0.000 A 
ATOM      8  C   UNL     1       4.476  -0.569   0.000  0.00  0.00    +0.000 A 
ATOM      9  C   UNL     1       3.731  -0.997   0.000  0.00  0.00    +0.000 A 
ATOM     10  C   UNL     1       5.919   0.231   0.000  0.00  0.00    +0.000 A 
ATOM     11  C   UNL     1       5.183  -0.993   0.000  0.00  0.00    +0.000 A 
ATOM     12  C   UNL     1       5.904  -0.593   0.000  0.00  0.00    +0.000 A 
ENDROOT
BRANCH  10  17
ATOM     13  O   UNL     1       8.776   0.182   0.000  0.00  0.00    +0.000 OA
ATOM     14  C   UNL     1       8.084   1.431   0.000  0.00  0.00    +0.000 A 
ATOM     15  C   UNL     1       8.069   0.607   0.000  0.00  0.00    +0.000 A 
ATOM     16  C   UNL     1       7.376   1.856   0.000  0.00  0.00    +0.000 A 
ATOM     17  C   UNL     1       6.641   0.631   0.000  0.00  0.00    +0.000 A 
ATOM     18  C   UNL     1       7.348   0.206   0.000  0.00  0.00    +0.000 A 
ATOM     19  C   UNL     1       6.655   1.456   0.000  0.00  0.00    +0.000 A 
BRANCH  14  20
ATOM     20  O   UNL     1       8.805   1.831   0.000  0.00  0.00    +0.000 OA
BRANCH  20  29
ATOM     21  O   UNL     1       9.498   0.582   0.000  0.00  0.00    +0.000 OA
ATOM     22  O   UNL     1      11.663   1.781   0.000  0.00  0.00    +0.000 OA
ATOM     23  O   UNL     1      11.634   0.132   0.000  0.00  0.00    +0.000 OA
ATOM     24  O   UNL     1      10.248   2.631   0.000  0.00  0.00    +0.000 OA
ATOM     25  C   UNL     1      10.941   1.381   0.000  0.00  0.00    +0.000 C 
ATOM     26  C   UNL     1      10.927   0.557   0.000  0.00  0.00    +0.000 C 
ATOM     27  C   UNL     1      10.234   1.806   0.000  0.00  0.00    +0.000 C 
ATOM     28  C   UNL     1      10.205   0.157   0.000  0.00  0.00    +0.000 C 
ATOM     29  C   UNL     1       9.512   1.406   0.000  0.00  0.00    +0.000 C 
ATOM     30  C   UNL     1      10.191  -0.668   0.000  0.00  0.00    +0.000 C 
ENDBRANCH  20  29
ENDBRANCH  14  20
ENDBRANCH  10  17
BRANCH   4  31
ATOM     31  O   UNL     1       2.300   0.727   0.000  0.00  0.00    +0.000 OA
BRANCH  31  40
ATOM     32  O   UNL     1       0.872   0.757   0.000  0.00  0.00    +0.000 OA
ATOM     33  O   UNL     1       0.819  -1.717   0.000  0.00  0.00    +0.000 OA
ATOM     34  O   UNL     1      -0.592  -0.862   0.000  0.00  0.00    +0.000 OA
ATOM     35  O   UNL     1       2.265  -0.922   0.000  0.00  0.00    +0.000 OA
ATOM     36  C   UNL     1       0.836  -0.892   0.000  0.00  0.00    +0.000 C 
ATOM     37  C   UNL     1       0.131  -0.464   0.000  0.00  0.00    +0.000 C 
ATOM     38  C   UNL     1       1.559  -0.495   0.000  0.00  0.00    +0.000 C 
ATOM     39  C   UNL     1       0.148   0.360   0.000  0.00  0.00    +0.000 C 
ATOM     40  C   UNL     1       1.577   0.330   0.000  0.00  0.00    +0.000 C 
BRANCH  39  43
ATOM     41  O   UNL     1      -0.539   1.613   0.000  0.00  0.00    +0.000 OA
ATOM     42  O   UNL     1      -1.280   0.391   0.000  0.00  0.00    +0.000 OA
ATOM     43  C   UNL     1      -0.557   0.788   0.000  0.00  0.00    +0.000 C 
ENDBRANCH  39  43
ENDBRANCH  31  40
ENDBRANCH   4  31
TORSDOF 6
