REMARK  Name = 
REMARK  4 active torsions:
REMARK  status: ('A' for Active; 'I' for Inactive)
REMARK    1  A    between atoms: C_3  and  O_5
REMARK    2  A    between atoms: O_5  and  C_9
REMARK    3  A    between atoms: C_6  and  C_11
REMARK    4  A    between atoms: C_30  and  O_33
REMARK                            x       y       z     vdW  Elec       q    Type
REMARK                         _______ _______ _______ _____ _____    ______ ____
ROOT
ATOM      1  O   UNL     1       0.000   0.000   0.000  0.00  0.00    +0.000 OA
ATOM      2  C   UNL     1       0.710   0.419   0.000  0.00  0.00    +0.000 A 
ATOM      3  C   UNL     1       1.421   0.014   0.000  0.00  0.00    +0.000 A 
ATOM      4  C   UNL     1       0.704   1.252   0.000  0.00  0.00    +0.000 A 
ATOM      5  C   UNL     1       2.131   0.433   0.000  0.00  0.00    +0.000 A 
ATOM      6  C   UNL     1       1.414   1.671   0.000  0.00  0.00    +0.000 A 
ATOM      7  C   UNL     1      -0.054   1.678   0.000  0.00  0.00    +0.000 A 
ATOM      8  O   UNL     1       2.124   1.265   0.000  0.00  0.00    +0.000 OA
ATOM      9  C   UNL     1       1.421   2.537   0.000  0.00  0.00    +0.000 A 
ATOM     10  O   UNL     1      -0.771   1.265   0.000  0.00  0.00    +0.000 OA
ATOM     11  C   UNL     1      -0.068   2.544   0.000  0.00  0.00    +0.000 A 
ATOM     12  C   UNL     1       0.677   2.977   0.000  0.00  0.00    +0.000 A 
ATOM     13  O   UNL     1       0.670   3.809   0.000  0.00  0.00    +0.000 OA
ENDROOT
BRANCH   5  14
ATOM     14  C   UNL     1       2.842   0.027   0.000  0.00  0.00    +0.000 A 
ATOM     15  C   UNL     1       3.552   0.447   0.000  0.00  0.00    +0.000 A 
ATOM     16  C   UNL     1       2.835  -0.792   0.000  0.00  0.00    +0.000 A 
ATOM     17  C   UNL     1       4.263   0.041   0.000  0.00  0.00    +0.000 A 
ATOM     18  C   UNL     1       3.545  -1.198   0.000  0.00  0.00    +0.000 A 
ATOM     19  O   UNL     1       4.973   0.460   0.000  0.00  0.00    +0.000 OA
ATOM     20  C   UNL     1       4.256  -0.778   0.000  0.00  0.00    +0.000 A 
ATOM     21  O   UNL     1       3.539  -2.016   0.000  0.00  0.00    +0.000 OA
BRANCH  20  22
ATOM     22  O   UNL     1       4.966  -1.184   0.000  0.00  0.00    +0.000 OA
ATOM     23  C   UNL     1       5.677  -0.765   0.000  0.00  0.00    +0.000 C 
ENDBRANCH  20  22
ENDBRANCH   5  14
BRANCH   3  24
ATOM     24  O   UNL     1       1.414  -0.805   0.000  0.00  0.00    +0.000 OA
BRANCH  24  25
ATOM     25  C   UNL     1       0.690  -1.211   0.000  0.00  0.00    +0.000 C 
ATOM     26  O   UNL     1      -0.034  -0.792   0.000  0.00  0.00    +0.000 OA
ATOM     27  C   UNL     1       0.683  -2.030   0.000  0.00  0.00    +0.000 C 
ATOM     28  C   UNL     1      -0.758  -1.198   0.000  0.00  0.00    +0.000 C 
ATOM     29  O   UNL     1       1.394  -2.436   0.000  0.00  0.00    +0.000 OA
ATOM     30  C   UNL     1      -0.041  -2.436   0.000  0.00  0.00    +0.000 C 
ATOM     31  C   UNL     1      -0.765  -2.016   0.000  0.00  0.00    +0.000 C 
ATOM     32  C   UNL     1      -1.482  -0.778   0.000  0.00  0.00    +0.000 C 
ATOM     33  O   UNL     1      -0.047  -3.254   0.000  0.00  0.00    +0.000 OA
ATOM     34  O   UNL     1      -1.488  -2.422   0.000  0.00  0.00    +0.000 OA
ENDBRANCH  24  25
ENDBRANCH   3  24
TORSDOF 4
