REMARK  Name = 
REMARK  5 active torsions:
REMARK  status: ('A' for Active; 'I' for Inactive)
REMARK    1  A    between atoms: C_7  and  C_12
REMARK    2  A    between atoms: C_9  and  O_13
REMARK    3  A    between atoms: C_14  and  O_18
REMARK    4  A    between atoms: O_18  and  C_21
REMARK    5  A    between atoms: C_26  and  C_29
REMARK                            x       y       z     vdW  Elec       q    Type
REMARK                         _______ _______ _______ _____ _____    ______ ____
ROOT
ATOM      1  O   UNL     1       0.000   0.000   0.000  0.00  0.00    +0.000 OA
ATOM      2  C   UNL     1       0.706  -0.397   0.000  0.00  0.00    +0.000 A 
ATOM      3  C   UNL     1       0.713  -1.244   0.000  0.00  0.00    +0.000 A 
ATOM      4  C   UNL     1       1.439   0.040   0.000  0.00  0.00    +0.000 A 
ATOM      5  C   UNL     1      -0.007  -1.648   0.000  0.00  0.00    +0.000 A 
ATOM      6  C   UNL     1       1.419  -1.648   0.000  0.00  0.00    +0.000 A 
ATOM      7  C   UNL     1       2.172  -0.383   0.000  0.00  0.00    +0.000 A 
ATOM      8  O   UNL     1      -0.726  -1.231   0.000  0.00  0.00    +0.000 OA
ATOM      9  C   UNL     1      -0.013  -2.461   0.000  0.00  0.00    +0.000 A 
ATOM     10  O   UNL     1       2.159  -1.224   0.000  0.00  0.00    +0.000 OA
ATOM     11  C   UNL     1       1.412  -2.461   0.000  0.00  0.00    +0.000 A 
ATOM     12  C   UNL     1       0.693  -2.865   0.000  0.00  0.00    +0.000 A 
ENDROOT
BRANCH   7  13
ATOM     13  C   UNL     1       2.878   0.034   0.000  0.00  0.00    +0.000 A 
ATOM     14  C   UNL     1       2.872   0.861   0.000  0.00  0.00    +0.000 A 
ATOM     15  C   UNL     1       3.578  -0.370   0.000  0.00  0.00    +0.000 A 
ATOM     16  C   UNL     1       3.578   1.278   0.000  0.00  0.00    +0.000 A 
ATOM     17  C   UNL     1       4.284   0.047   0.000  0.00  0.00    +0.000 A 
ATOM     18  C   UNL     1       4.277   0.874   0.000  0.00  0.00    +0.000 A 
ATOM     19  O   UNL     1       4.983   1.291   0.000  0.00  0.00    +0.000 OA
ENDBRANCH   7  13
BRANCH   9  20
ATOM     20  O   UNL     1      -0.733  -2.865   0.000  0.00  0.00    +0.000 OA
ATOM     21  C   UNL     1      -1.453  -2.448   0.000  0.00  0.00    +0.000 C 
ENDBRANCH   9  20
BRANCH  12  22
ATOM     22  O   UNL     1       0.686  -3.679   0.000  0.00  0.00    +0.000 OA
BRANCH  22  23
ATOM     23  C   UNL     1      -0.034  -4.082   0.000  0.00  0.00    +0.000 C 
ATOM     24  O   UNL     1      -0.753  -3.665   0.000  0.00  0.00    +0.000 OA
ATOM     25  C   UNL     1      -0.040  -4.896   0.000  0.00  0.00    +0.000 C 
ATOM     26  C   UNL     1      -1.473  -4.069   0.000  0.00  0.00    +0.000 C 
ATOM     27  O   UNL     1       0.666  -5.300   0.000  0.00  0.00    +0.000 OA
ATOM     28  C   UNL     1      -0.760  -5.300   0.000  0.00  0.00    +0.000 C 
ATOM     29  C   UNL     1      -1.480  -4.883   0.000  0.00  0.00    +0.000 C 
ATOM     30  O   UNL     1      -0.767  -6.113   0.000  0.00  0.00    +0.000 OA
ATOM     31  O   UNL     1      -2.199  -5.286   0.000  0.00  0.00    +0.000 OA
BRANCH  26  32
ATOM     32  C   UNL     1      -2.192  -3.652   0.000  0.00  0.00    +0.000 C 
ATOM     33  O   UNL     1      -2.199  -2.825   0.000  0.00  0.00    +0.000 OA
ATOM     34  O   UNL     1      -2.912  -4.055   0.000  0.00  0.00    +0.000 OA
ENDBRANCH  26  32
ENDBRANCH  22  23
ENDBRANCH  12  22
TORSDOF 5
