REMARK  Name = 44258476
REMARK  3 active torsions:
REMARK  status: ('A' for Active; 'I' for Inactive)
REMARK    1  A    between atoms: O_2  and  C_15
REMARK    2  A    between atoms: O_2  and  C_17
REMARK    3  A    between atoms: C_24  and  C_26
REMARK                            x       y       z     vdW  Elec       q    Type
REMARK                         _______ _______ _______ _____ _____    ______ ____
ROOT
ATOM      1  O   UNL     1       7.832  -0.223   0.000  0.00  0.00    +0.000 OA
ATOM      2  O   UNL     1       6.380   2.281   0.000  0.00  0.00    +0.000 OA
ATOM      3  O   UNL     1       4.951  -0.194   0.000  0.00  0.00    +0.000 OA
ATOM      4  O   UNL     1       7.822   2.309   0.000  0.00  0.00    +0.000 OA
ATOM      5  C   UNL     1       5.665   1.044   0.000  0.00  0.00    +0.000 A 
ATOM      6  C   UNL     1       6.380   1.456   0.000  0.00  0.00    +0.000 A 
ATOM      7  C   UNL     1       7.094   1.044   0.000  0.00  0.00    +0.000 A 
ATOM      8  C   UNL     1       5.665   0.218   0.000  0.00  0.00    +0.000 A 
ATOM      9  C   UNL     1       7.094   0.218   0.000  0.00  0.00    +0.000 A 
ATOM     10  C   UNL     1       6.380  -0.194   0.000  0.00  0.00    +0.000 A 
ATOM     11  C   UNL     1       7.832   1.484   0.000  0.00  0.00    +0.000 A 
ATOM     12  C   UNL     1       8.579   0.201   0.000  0.00  0.00    +0.000 A 
ATOM     13  C   UNL     1       8.579   1.061   0.000  0.00  0.00    +0.000 A 
ENDROOT
BRANCH  12  16
ATOM     14  O   UNL     1       9.999  -2.279   0.000  0.00  0.00    +0.000 OA
ATOM     15  O   UNL     1      11.431  -1.460   0.000  0.00  0.00    +0.000 OA
ATOM     16  C   UNL     1       9.292  -0.214   0.000  0.00  0.00    +0.000 A 
ATOM     17  C   UNL     1       9.289  -1.039   0.000  0.00  0.00    +0.000 A 
ATOM     18  C   UNL     1      10.008   0.196   0.000  0.00  0.00    +0.000 A 
ATOM     19  C   UNL     1      10.002  -1.454   0.000  0.00  0.00    +0.000 A 
ATOM     20  C   UNL     1      10.721  -0.220   0.000  0.00  0.00    +0.000 A 
ATOM     21  C   UNL     1      10.718  -1.044   0.000  0.00  0.00    +0.000 A 
ENDBRANCH  12  16
BRANCH   5  22
ATOM     22  O   UNL     1       4.951   1.456   0.000  0.00  0.00    +0.000 OA
BRANCH  22  30
ATOM     23  O   UNL     1       4.236   0.218   0.000  0.00  0.00    +0.000 OA
ATOM     24  O   UNL     1       2.093   1.456   0.000  0.00  0.00    +0.000 OA
ATOM     25  O   UNL     1       3.522   2.281   0.000  0.00  0.00    +0.000 OA
ATOM     26  O   UNL     1       2.093  -0.194   0.000  0.00  0.00    +0.000 OA
ATOM     27  C   UNL     1       2.808   1.044   0.000  0.00  0.00    +0.000 C 
ATOM     28  C   UNL     1       3.522   1.456   0.000  0.00  0.00    +0.000 C 
ATOM     29  C   UNL     1       2.808   0.218   0.000  0.00  0.00    +0.000 C 
ATOM     30  C   UNL     1       4.236   1.044   0.000  0.00  0.00    +0.000 C 
ATOM     31  C   UNL     1       3.522  -0.194   0.000  0.00  0.00    +0.000 C 
ENDBRANCH  22  30
ENDBRANCH   5  22
TORSDOF 3
