REMARK  Name = 10252339
REMARK  4 active torsions:
REMARK  status: ('A' for Active; 'I' for Inactive)
REMARK    1  A    between atoms: O_2  and  C_15
REMARK    2  A    between atoms: O_2  and  C_17
REMARK    3  A    between atoms: C_14  and  C_16
REMARK    4  A    between atoms: C_18  and  C_22
REMARK                            x       y       z     vdW  Elec       q    Type
REMARK                         _______ _______ _______ _____ _____    ______ ____
ROOT
ATOM      1  O   UNL     1       6.781   0.462   0.000  0.00  0.00    +0.000 OA
ATOM      2  O   UNL     1       4.427  -0.303   0.000  0.00  0.00    +0.000 OA
ATOM      3  O   UNL     1       3.954   1.060   0.000  0.00  0.00    +0.000 OA
ATOM      4  O   UNL     1       5.900   3.238   0.000  0.00  0.00    +0.000 OA
ATOM      5  C   UNL     1       5.825  -0.600   0.000  0.00  0.00    +0.000 A 
ATOM      6  C   UNL     1       6.610  -0.345   0.000  0.00  0.00    +0.000 A 
ATOM      7  C   UNL     1       5.212  -0.048   0.000  0.00  0.00    +0.000 A 
ATOM      8  C   UNL     1       5.383   0.759   0.000  0.00  0.00    +0.000 A 
ATOM      9  C   UNL     1       6.168   1.014   0.000  0.00  0.00    +0.000 A 
ATOM     10  C   UNL     1       4.736   1.324   0.000  0.00  0.00    +0.000 A 
ATOM     11  C   UNL     1       6.360   1.851   0.000  0.00  0.00    +0.000 A 
ATOM     12  C   UNL     1       4.908   2.166   0.000  0.00  0.00    +0.000 A 
ATOM     13  C   UNL     1       5.726   2.431   0.000  0.00  0.00    +0.000 A 
ENDROOT
BRANCH   6  16
ATOM     14  O   UNL     1       9.405  -0.939   0.000  0.00  0.00    +0.000 OA
ATOM     15  O   UNL     1       9.062  -2.553   0.000  0.00  0.00    +0.000 OA
ATOM     16  C   UNL     1       7.223  -0.897   0.000  0.00  0.00    +0.000 A 
ATOM     17  C   UNL     1       8.007  -0.642   0.000  0.00  0.00    +0.000 A 
ATOM     18  C   UNL     1       7.051  -1.704   0.000  0.00  0.00    +0.000 A 
ATOM     19  C   UNL     1       8.620  -1.194   0.000  0.00  0.00    +0.000 A 
ATOM     20  C   UNL     1       7.664  -2.256   0.000  0.00  0.00    +0.000 A 
ATOM     21  C   UNL     1       8.449  -2.001   0.000  0.00  0.00    +0.000 A 
ENDBRANCH   6  16
BRANCH   5  22
ATOM     22  O   UNL     1       5.654  -1.407   0.000  0.00  0.00    +0.000 OA
BRANCH  22  29
ATOM     23  O   UNL     1       4.202  -1.177   0.000  0.00  0.00    +0.000 OA
ATOM     24  O   UNL     1       3.304  -3.114   0.000  0.00  0.00    +0.000 OA
ATOM     25  O   UNL     1       5.099  -3.114   0.000  0.00  0.00    +0.000 OA
ATOM     26  C   UNL     1       3.789  -2.447   0.000  0.00  0.00    +0.000 C 
ATOM     27  C   UNL     1       4.614  -2.447   0.000  0.00  0.00    +0.000 C 
ATOM     28  C   UNL     1       3.534  -1.662   0.000  0.00  0.00    +0.000 C 
ATOM     29  C   UNL     1       4.869  -1.662   0.000  0.00  0.00    +0.000 C 
BRANCH  28  31
ATOM     30  O   UNL     1       2.136  -1.959   0.000  0.00  0.00    +0.000 OA
ATOM     31  C   UNL     1       2.749  -1.407   0.000  0.00  0.00    +0.000 C 
ENDBRANCH  28  31
ENDBRANCH  22  29
ENDBRANCH   5  22
TORSDOF 4
