REMARK  Name = 131832575
REMARK  6 active torsions:
REMARK  status: ('A' for Active; 'I' for Inactive)
REMARK    1  A    between atoms: O_2  and  C_27
REMARK    2  A    between atoms: O_2  and  C_30
REMARK    3  A    between atoms: C_19  and  C_24
REMARK    4  A    between atoms: C_23  and  C_29
REMARK    5  A    between atoms: C_31  and  C_36
REMARK    6  A    between atoms: C_38  and  C_40
REMARK                            x       y       z     vdW  Elec       q    Type
REMARK                         _______ _______ _______ _____ _____    ______ ____
ROOT
ATOM      1  O   UNL     1       7.853   1.090   0.000  0.00  0.00    +0.000 OA
ATOM      2  O   UNL     1       4.958   1.095   0.000  0.00  0.00    +0.000 OA
ATOM      3  O   UNL     1       7.156   2.353   0.000  0.00  0.00    +0.000 OA
ATOM      4  C   UNL     1       7.138  -0.148   0.000  0.00  0.00    +0.000 A 
ATOM      5  C   UNL     1       6.424  -0.560   0.000  0.00  0.00    +0.000 A 
ATOM      6  C   UNL     1       7.138   0.677   0.000  0.00  0.00    +0.000 A 
ATOM      7  C   UNL     1       6.424   1.090   0.000  0.00  0.00    +0.000 A 
ATOM      8  C   UNL     1       5.709  -0.148   0.000  0.00  0.00    +0.000 A 
ATOM      9  C   UNL     1       5.709   0.677   0.000  0.00  0.00    +0.000 A 
ATOM     10  C   UNL     1       6.437   1.949   0.000  0.00  0.00    +0.000 A 
ATOM     11  C   UNL     1       4.952   1.955   0.000  0.00  0.00    +0.000 A 
ATOM     12  C   UNL     1       5.696   2.384   0.000  0.00  0.00    +0.000 A 
ENDROOT
BRANCH   4  17
ATOM     13  O   UNL     1       8.567  -0.148   0.000  0.00  0.00    +0.000 OA
ATOM     14  O   UNL     1       7.138  -1.798   0.000  0.00  0.00    +0.000 OA
ATOM     15  O   UNL     1       8.567  -2.623   0.000  0.00  0.00    +0.000 OA
ATOM     16  O   UNL     1       9.996  -1.798   0.000  0.00  0.00    +0.000 OA
ATOM     17  C   UNL     1       7.853  -0.560   0.000  0.00  0.00    +0.000 C 
ATOM     18  C   UNL     1       7.853  -1.385   0.000  0.00  0.00    +0.000 C 
ATOM     19  C   UNL     1       8.567  -1.798   0.000  0.00  0.00    +0.000 C 
ATOM     20  C   UNL     1       9.282  -1.385   0.000  0.00  0.00    +0.000 C 
ATOM     21  C   UNL     1       9.282  -0.560   0.000  0.00  0.00    +0.000 C 
BRANCH  21  23
ATOM     22  O   UNL     1      10.710  -0.560   0.000  0.00  0.00    +0.000 OA
ATOM     23  C   UNL     1       9.996  -0.148   0.000  0.00  0.00    +0.000 C 
ENDBRANCH  21  23
ENDBRANCH   4  17
BRANCH  11  27
ATOM     24  O   UNL     1       4.946   3.605   0.000  0.00  0.00    +0.000 OA
ATOM     25  O   UNL     1       2.094   1.944   0.000  0.00  0.00    +0.000 OA
ATOM     26  O   UNL     1       2.088   3.594   0.000  0.00  0.00    +0.000 OA
ATOM     27  C   UNL     1       4.236   2.364   0.000  0.00  0.00    +0.000 A 
ATOM     28  C   UNL     1       4.233   3.189   0.000  0.00  0.00    +0.000 A 
ATOM     29  C   UNL     1       3.523   1.949   0.000  0.00  0.00    +0.000 A 
ATOM     30  C   UNL     1       2.807   2.359   0.000  0.00  0.00    +0.000 A 
ATOM     31  C   UNL     1       3.517   3.599   0.000  0.00  0.00    +0.000 A 
ATOM     32  C   UNL     1       2.804   3.184   0.000  0.00  0.00    +0.000 A 
ENDBRANCH  11  27
BRANCH   5  33
ATOM     33  O   UNL     1       6.424  -1.385   0.000  0.00  0.00    +0.000 OA
BRANCH  33  40
ATOM     34  O   UNL     1       4.995  -1.385   0.000  0.00  0.00    +0.000 OA
ATOM     35  O   UNL     1       6.424  -3.035   0.000  0.00  0.00    +0.000 OA
ATOM     36  O   UNL     1       4.995  -3.860   0.000  0.00  0.00    +0.000 OA
ATOM     37  O   UNL     1       3.566  -3.035   0.000  0.00  0.00    +0.000 OA
ATOM     38  C   UNL     1       5.709  -2.623   0.000  0.00  0.00    +0.000 C 
ATOM     39  C   UNL     1       4.995  -3.035   0.000  0.00  0.00    +0.000 C 
ATOM     40  C   UNL     1       5.709  -1.798   0.000  0.00  0.00    +0.000 C 
ATOM     41  C   UNL     1       4.280  -2.623   0.000  0.00  0.00    +0.000 C 
ATOM     42  C   UNL     1       4.280  -1.798   0.000  0.00  0.00    +0.000 C 
BRANCH  42  45
ATOM     43  O   UNL     1       2.851  -1.798   0.000  0.00  0.00    +0.000 OA
ATOM     44  O   UNL     1       3.566  -0.560   0.000  0.00  0.00    +0.000 OA
ATOM     45  C   UNL     1       3.566  -1.385   0.000  0.00  0.00    +0.000 C 
ENDBRANCH  42  45
ENDBRANCH  33  40
ENDBRANCH   5  33
TORSDOF 6
