REMARK  Name = 131831879
REMARK  11 active torsions:
REMARK  status: ('A' for Active; 'I' for Inactive)
REMARK    1  A    between atoms: S_1  and  O_5
REMARK    2  A    between atoms: O_2  and  C_22
REMARK    3  A    between atoms: O_2  and  C_23
REMARK    4  A    between atoms: O_5  and  C_21
REMARK    5  A    between atoms: O_8  and  C_27
REMARK    6  A    between atoms: O_8  and  C_31
REMARK    7  A    between atoms: O_11  and  C_30
REMARK    8  A    between atoms: O_11  and  C_34
REMARK    9  A    between atoms: C_20  and  C_29
REMARK   10  A    between atoms: C_28  and  C_30
REMARK   11  A    between atoms: C_40  and  C_42
REMARK                            x       y       z     vdW  Elec       q    Type
REMARK                         _______ _______ _______ _____ _____    ______ ____
ROOT
ATOM      1  O   UNL     1       5.222  -0.735   0.000  0.00  0.00    +0.000 OA
ATOM      2  O   UNL     1       5.222  -3.210   0.000  0.00  0.00    +0.000 OA
ATOM      3  O   UNL     1       3.793  -2.385   0.000  0.00  0.00    +0.000 OA
ATOM      4  C   UNL     1       5.937  -1.973   0.000  0.00  0.00    +0.000 C 
ATOM      5  C   UNL     1       5.222  -2.385   0.000  0.00  0.00    +0.000 C 
ATOM      6  C   UNL     1       4.508  -1.973   0.000  0.00  0.00    +0.000 C 
ATOM      7  C   UNL     1       5.937  -1.148   0.000  0.00  0.00    +0.000 C 
ATOM      8  C   UNL     1       4.508  -1.148   0.000  0.00  0.00    +0.000 C 
ENDROOT
BRANCH   4   9
ATOM      9  O   UNL     1       6.651  -2.385   0.000  0.00  0.00    +0.000 OA
BRANCH   9  14
ATOM     10  O   UNL     1       7.452  -1.152   0.000  0.00  0.00    +0.000 OA
ATOM     11  O   UNL     1       9.386  -1.283   0.000  0.00  0.00    +0.000 OA
ATOM     12  C   UNL     1       8.671  -1.695   0.000  0.00  0.00    +0.000 C 
ATOM     13  C   UNL     1       8.120  -2.308   0.000  0.00  0.00    +0.000 C 
ATOM     14  C   UNL     1       7.366  -1.973   0.000  0.00  0.00    +0.000 C 
ATOM     15  C   UNL     1       8.259  -0.981   0.000  0.00  0.00    +0.000 C 
BRANCH  12  17
ATOM     16  O   UNL     1      10.069  -1.992   0.000  0.00  0.00    +0.000 OA
ATOM     17  C   UNL     1       9.284  -2.247   0.000  0.00  0.00    +0.000 C 
ENDBRANCH  12  17
BRANCH  13  18
ATOM     18  O   UNL     1       8.291  -3.115   0.000  0.00  0.00    +0.000 OA
BRANCH  18  19
ATOM     19  S   UNL     1       7.678  -3.667   0.000  0.00  0.00    +0.000 S 
ATOM     20  O   UNL     1       8.230  -4.280   0.000  0.00  0.00    +0.000 OA
ATOM     21  O   UNL     1       7.065  -4.219   0.000  0.00  0.00    +0.000 OA
ATOM     22  O   UNL     1       7.126  -3.054   0.000  0.00  0.00    +0.000 OA
ENDBRANCH  18  19
ENDBRANCH  13  18
ENDBRANCH   9  14
ENDBRANCH   4   9
BRANCH   7  23
ATOM     23  O   UNL     1       6.651  -0.735   0.000  0.00  0.00    +0.000 OA
BRANCH  23  27
ATOM     24  O   UNL     1       8.100   1.791   0.000  0.00  0.00    +0.000 OA
ATOM     25  O   UNL     1       5.211   1.805   0.000  0.00  0.00    +0.000 OA
ATOM     26  O   UNL     1       5.961   3.037   0.000  0.00  0.00    +0.000 OA
ATOM     27  C   UNL     1       6.651   0.090   0.000  0.00  0.00    +0.000 A 
ATOM     28  C   UNL     1       7.394   0.522   0.000  0.00  0.00    +0.000 A 
ATOM     29  C   UNL     1       5.909   0.522   0.000  0.00  0.00    +0.000 A 
ATOM     30  C   UNL     1       7.384   1.382   0.000  0.00  0.00    +0.000 A 
ATOM     31  C   UNL     1       5.919   1.382   0.000  0.00  0.00    +0.000 A 
ATOM     32  C   UNL     1       6.671   1.797   0.000  0.00  0.00    +0.000 A 
ATOM     33  C   UNL     1       6.674   2.622   0.000  0.00  0.00    +0.000 A 
ATOM     34  C   UNL     1       8.103   2.616   0.000  0.00  0.00    +0.000 A 
ATOM     35  C   UNL     1       7.390   3.032   0.000  0.00  0.00    +0.000 A 
BRANCH  34  37
ATOM     36  O   UNL     1      10.967   4.255   0.000  0.00  0.00    +0.000 OA
ATOM     37  C   UNL     1       8.819   3.026   0.000  0.00  0.00    +0.000 A 
ATOM     38  C   UNL     1       8.822   3.851   0.000  0.00  0.00    +0.000 A 
ATOM     39  C   UNL     1       9.532   2.611   0.000  0.00  0.00    +0.000 A 
ATOM     40  C   UNL     1       9.538   4.261   0.000  0.00  0.00    +0.000 A 
ATOM     41  C   UNL     1      10.248   3.021   0.000  0.00  0.00    +0.000 A 
ATOM     42  C   UNL     1      10.251   3.846   0.000  0.00  0.00    +0.000 A 
ENDBRANCH  34  37
ENDBRANCH  23  27
ENDBRANCH   7  23
BRANCH   8  43
ATOM     43  C   UNL     1       3.793  -0.735   0.000  0.00  0.00    +0.000 C 
BRANCH  43  44
ATOM     44  O   UNL     1       3.079  -1.148   0.000  0.00  0.00    +0.000 OA
BRANCH  44  46
ATOM     45  O   UNL     1       2.364   0.090   0.000  0.00  0.00    +0.000 OA
ATOM     46  C   UNL     1       2.364  -0.735   0.000  0.00  0.00    +0.000 C 
ATOM     47  C   UNL     1       1.650  -1.148   0.000  0.00  0.00    +0.000 C 
ENDBRANCH  44  46
ENDBRANCH  43  44
ENDBRANCH   8  43
TORSDOF 11
