REMARK  Name = 10265122
REMARK  2 active torsions:
REMARK  status: ('A' for Active; 'I' for Inactive)
REMARK    1  A    between atoms: O_3  and  C_15
REMARK    2  A    between atoms: C_5  and  C_7
REMARK                            x       y       z     vdW  Elec       q    Type
REMARK                         _______ _______ _______ _____ _____    ______ ____
ROOT
ATOM      1  O   UNL     1       5.278  -0.619   0.000  0.00  0.00    +0.000 OA
ATOM      2  O   UNL     1       5.278   1.856   0.000  0.00  0.00    +0.000 OA
ATOM      3  C   UNL     1       5.992  -0.206   0.000  0.00  0.00    +0.000 C 
ATOM      4  C   UNL     1       5.992   0.619   0.000  0.00  0.00    +0.000 C 
ATOM      5  C   UNL     1       4.563   0.619   0.000  0.00  0.00    +0.000 A 
ATOM      6  C   UNL     1       5.278   1.031   0.000  0.00  0.00    +0.000 C 
ATOM      7  C   UNL     1       4.563  -0.206   0.000  0.00  0.00    +0.000 A 
ATOM      8  C   UNL     1       3.826   1.060   0.000  0.00  0.00    +0.000 A 
ATOM      9  C   UNL     1       3.826  -0.647   0.000  0.00  0.00    +0.000 A 
ATOM     10  C   UNL     1       3.079  -0.223   0.000  0.00  0.00    +0.000 A 
ATOM     11  C   UNL     1       3.079   0.636   0.000  0.00  0.00    +0.000 A 
ENDROOT
BRANCH   3  13
ATOM     12  O   UNL     1       8.850  -1.856   0.000  0.00  0.00    +0.000 OA
ATOM     13  C   UNL     1       6.707  -0.619   0.000  0.00  0.00    +0.000 A 
ATOM     14  C   UNL     1       7.421  -0.206   0.000  0.00  0.00    +0.000 A 
ATOM     15  C   UNL     1       6.707  -1.444   0.000  0.00  0.00    +0.000 A 
ATOM     16  C   UNL     1       8.135  -0.619   0.000  0.00  0.00    +0.000 A 
ATOM     17  C   UNL     1       7.421  -1.856   0.000  0.00  0.00    +0.000 A 
ATOM     18  C   UNL     1       8.135  -1.444   0.000  0.00  0.00    +0.000 A 
ENDBRANCH   3  13
BRANCH  10  19
ATOM     19  O   UNL     1       2.366  -0.639   0.000  0.00  0.00    +0.000 OA
ATOM     20  C   UNL     1       1.650  -0.229   0.000  0.00  0.00    +0.000 C 
ENDBRANCH  10  19
TORSDOF 2
