REMARK  Name = 131752323
REMARK  6 active torsions:
REMARK  status: ('A' for Active; 'I' for Inactive)
REMARK    1  A    between atoms: O_2  and  C_18
REMARK    2  A    between atoms: O_2  and  C_21
REMARK    3  A    between atoms: O_11  and  C_31
REMARK    4  A    between atoms: O_13  and  C_33
REMARK    5  A    between atoms: C_19  and  C_20
REMARK    6  A    between atoms: C_22  and  C_26
REMARK                            x       y       z     vdW  Elec       q    Type
REMARK                         _______ _______ _______ _____ _____    ______ ____
ROOT
ATOM      1  O   UNL     1       6.380   0.926   0.000  0.00  0.00    +0.000 OA
ATOM      2  O   UNL     1       4.236  -0.312   0.000  0.00  0.00    +0.000 OA
ATOM      3  O   UNL     1       3.490   0.923   0.000  0.00  0.00    +0.000 OA
ATOM      4  O   UNL     1       3.478   2.613   0.000  0.00  0.00    +0.000 OA
ATOM      5  C   UNL     1       5.665  -0.312   0.000  0.00  0.00    +0.000 A 
ATOM      6  C   UNL     1       6.380   0.101   0.000  0.00  0.00    +0.000 A 
ATOM      7  C   UNL     1       4.951   0.101   0.000  0.00  0.00    +0.000 A 
ATOM      8  C   UNL     1       4.951   0.926   0.000  0.00  0.00    +0.000 A 
ATOM      9  C   UNL     1       5.665   1.338   0.000  0.00  0.00    +0.000 A 
ATOM     10  C   UNL     1       4.200   1.344   0.000  0.00  0.00    +0.000 A 
ATOM     11  C   UNL     1       5.679   2.197   0.000  0.00  0.00    +0.000 A 
ATOM     12  C   UNL     1       4.194   2.203   0.000  0.00  0.00    +0.000 A 
ATOM     13  C   UNL     1       4.938   2.633   0.000  0.00  0.00    +0.000 A 
ENDROOT
BRANCH   6  15
ATOM     14  O   UNL     1       9.238  -1.549   0.000  0.00  0.00    +0.000 OA
ATOM     15  C   UNL     1       7.094  -0.312   0.000  0.00  0.00    +0.000 A 
ATOM     16  C   UNL     1       7.809   0.101   0.000  0.00  0.00    +0.000 A 
ATOM     17  C   UNL     1       7.094  -1.137   0.000  0.00  0.00    +0.000 A 
ATOM     18  C   UNL     1       8.523  -0.312   0.000  0.00  0.00    +0.000 A 
ATOM     19  C   UNL     1       7.809  -1.549   0.000  0.00  0.00    +0.000 A 
ATOM     20  C   UNL     1       8.523  -1.137   0.000  0.00  0.00    +0.000 A 
BRANCH  18  21
ATOM     21  O   UNL     1       9.238   0.101   0.000  0.00  0.00    +0.000 OA
ATOM     22  C   UNL     1       9.238   0.926   0.000  0.00  0.00    +0.000 C 
ENDBRANCH  18  21
ENDBRANCH   6  15
BRANCH  13  23
ATOM     23  O   UNL     1       4.941   3.458   0.000  0.00  0.00    +0.000 OA
ATOM     24  C   UNL     1       5.657   3.868   0.000  0.00  0.00    +0.000 C 
ENDBRANCH  13  23
BRANCH   5  25
ATOM     25  O   UNL     1       5.665  -1.137   0.000  0.00  0.00    +0.000 OA
BRANCH  25  33
ATOM     26  O   UNL     1       4.236  -1.137   0.000  0.00  0.00    +0.000 OA
ATOM     27  O   UNL     1       4.236  -3.612   0.000  0.00  0.00    +0.000 OA
ATOM     28  O   UNL     1       5.665  -2.787   0.000  0.00  0.00    +0.000 OA
ATOM     29  O   UNL     1       2.808  -2.787   0.000  0.00  0.00    +0.000 OA
ATOM     30  C   UNL     1       4.236  -2.787   0.000  0.00  0.00    +0.000 C 
ATOM     31  C   UNL     1       4.951  -2.374   0.000  0.00  0.00    +0.000 C 
ATOM     32  C   UNL     1       3.522  -2.374   0.000  0.00  0.00    +0.000 C 
ATOM     33  C   UNL     1       4.951  -1.549   0.000  0.00  0.00    +0.000 C 
ATOM     34  C   UNL     1       3.522  -1.549   0.000  0.00  0.00    +0.000 C 
BRANCH  34  37
ATOM     35  O   UNL     1       2.093  -1.549   0.000  0.00  0.00    +0.000 OA
ATOM     36  O   UNL     1       2.808  -0.312   0.000  0.00  0.00    +0.000 OA
ATOM     37  C   UNL     1       2.808  -1.137   0.000  0.00  0.00    +0.000 C 
ENDBRANCH  34  37
ENDBRANCH  25  33
ENDBRANCH   5  25
TORSDOF 6
