REMARK  Name = 44258607
REMARK  12 active torsions:
REMARK  status: ('A' for Active; 'I' for Inactive)
REMARK    1  A    between atoms: O_1  and  C_20
REMARK    2  A    between atoms: O_1  and  C_23
REMARK    3  A    between atoms: O_5  and  C_25
REMARK    4  A    between atoms: O_5  and  C_32
REMARK    5  A    between atoms: O_10  and  C_30
REMARK    6  A    between atoms: O_10  and  C_35
REMARK    7  A    between atoms: O_11  and  C_31
REMARK    8  A    between atoms: O_11  and  C_36
REMARK    9  A    between atoms: O_19  and  C_50
REMARK   10  A    between atoms: C_26  and  C_30
REMARK   11  A    between atoms: C_29  and  C_31
REMARK   12  A    between atoms: C_43  and  C_45
REMARK                            x       y       z     vdW  Elec       q    Type
REMARK                         _______ _______ _______ _____ _____    ______ ____
ROOT
ATOM      1  O   UNL     1       5.222   0.192   0.000  0.00  0.00    +0.000 OA
ATOM      2  O   UNL     1       5.222  -2.283   0.000  0.00  0.00    +0.000 OA
ATOM      3  O   UNL     1       3.793  -1.458   0.000  0.00  0.00    +0.000 OA
ATOM      4  C   UNL     1       5.937  -1.046   0.000  0.00  0.00    +0.000 C 
ATOM      5  C   UNL     1       5.222  -1.458   0.000  0.00  0.00    +0.000 C 
ATOM      6  C   UNL     1       4.508  -1.046   0.000  0.00  0.00    +0.000 C 
ATOM      7  C   UNL     1       5.937  -0.221   0.000  0.00  0.00    +0.000 C 
ATOM      8  C   UNL     1       4.508  -0.221   0.000  0.00  0.00    +0.000 C 
ENDROOT
BRANCH   4   9
ATOM      9  O   UNL     1       6.651  -1.458   0.000  0.00  0.00    +0.000 OA
BRANCH   9  14
ATOM     10  O   UNL     1       5.937  -2.696   0.000  0.00  0.00    +0.000 OA
ATOM     11  O   UNL     1       8.080  -2.283   0.000  0.00  0.00    +0.000 OA
ATOM     12  O   UNL     1       8.080  -3.933   0.000  0.00  0.00    +0.000 OA
ATOM     13  O   UNL     1       6.651  -4.758   0.000  0.00  0.00    +0.000 OA
ATOM     14  C   UNL     1       6.651  -2.283   0.000  0.00  0.00    +0.000 C 
ATOM     15  C   UNL     1       7.366  -2.696   0.000  0.00  0.00    +0.000 C 
ATOM     16  C   UNL     1       7.366  -3.521   0.000  0.00  0.00    +0.000 C 
ATOM     17  C   UNL     1       6.651  -3.933   0.000  0.00  0.00    +0.000 C 
ATOM     18  C   UNL     1       5.937  -3.521   0.000  0.00  0.00    +0.000 C 
BRANCH  18  19
ATOM     19  C   UNL     1       5.222  -3.933   0.000  0.00  0.00    +0.000 C 
BRANCH  19  20
ATOM     20  O   UNL     1       5.222  -4.758   0.000  0.00  0.00    +0.000 OA
BRANCH  20  22
ATOM     21  O   UNL     1       3.793  -4.758   0.000  0.00  0.00    +0.000 OA
ATOM     22  C   UNL     1       4.508  -5.171   0.000  0.00  0.00    +0.000 C 
ATOM     23  C   UNL     1       4.508  -5.996   0.000  0.00  0.00    +0.000 C 
ENDBRANCH  20  22
ENDBRANCH  19  20
ENDBRANCH  18  19
ENDBRANCH   9  14
ENDBRANCH   4   9
BRANCH   7  24
ATOM     24  O   UNL     1       6.651   0.192   0.000  0.00  0.00    +0.000 OA
BRANCH  24  29
ATOM     25  O   UNL     1       8.080   1.017   0.000  0.00  0.00    +0.000 OA
ATOM     26  O   UNL     1       8.117   2.672   0.000  0.00  0.00    +0.000 OA
ATOM     27  O   UNL     1       5.222   2.667   0.000  0.00  0.00    +0.000 OA
ATOM     28  O   UNL     1       5.919   3.930   0.000  0.00  0.00    +0.000 OA
ATOM     29  C   UNL     1       6.651   1.017   0.000  0.00  0.00    +0.000 A 
ATOM     30  C   UNL     1       7.366   1.429   0.000  0.00  0.00    +0.000 A 
ATOM     31  C   UNL     1       5.937   1.429   0.000  0.00  0.00    +0.000 A 
ATOM     32  C   UNL     1       7.366   2.254   0.000  0.00  0.00    +0.000 A 
ATOM     33  C   UNL     1       5.937   2.254   0.000  0.00  0.00    +0.000 A 
ATOM     34  C   UNL     1       6.651   2.667   0.000  0.00  0.00    +0.000 A 
ATOM     35  C   UNL     1       6.638   3.526   0.000  0.00  0.00    +0.000 A 
ATOM     36  C   UNL     1       8.123   3.532   0.000  0.00  0.00    +0.000 A 
ATOM     37  C   UNL     1       7.379   3.961   0.000  0.00  0.00    +0.000 A 
BRANCH  36  39
ATOM     38  O   UNL     1      10.981   3.521   0.000  0.00  0.00    +0.000 OA
ATOM     39  C   UNL     1       8.839   3.942   0.000  0.00  0.00    +0.000 A 
ATOM     40  C   UNL     1       9.552   3.526   0.000  0.00  0.00    +0.000 A 
ATOM     41  C   UNL     1       8.842   4.766   0.000  0.00  0.00    +0.000 A 
ATOM     42  C   UNL     1      10.268   3.936   0.000  0.00  0.00    +0.000 A 
ATOM     43  C   UNL     1       9.558   5.176   0.000  0.00  0.00    +0.000 A 
ATOM     44  C   UNL     1      10.271   4.761   0.000  0.00  0.00    +0.000 A 
BRANCH  44  45
ATOM     45  O   UNL     1      10.987   5.171   0.000  0.00  0.00    +0.000 OA
ATOM     46  C   UNL     1      10.991   5.996   0.000  0.00  0.00    +0.000 C 
ENDBRANCH  44  45
ENDBRANCH  36  39
ENDBRANCH  24  29
ENDBRANCH   7  24
BRANCH   8  47
ATOM     47  C   UNL     1       3.793   0.192   0.000  0.00  0.00    +0.000 C 
BRANCH  47  48
ATOM     48  O   UNL     1       3.079  -0.221   0.000  0.00  0.00    +0.000 OA
BRANCH  48  50
ATOM     49  O   UNL     1       2.364   1.017   0.000  0.00  0.00    +0.000 OA
ATOM     50  C   UNL     1       2.364   0.192   0.000  0.00  0.00    +0.000 C 
ATOM     51  C   UNL     1       1.650  -0.221   0.000  0.00  0.00    +0.000 C 
ENDBRANCH  48  50
ENDBRANCH  47  48
ENDBRANCH   8  47
TORSDOF 12
