REMARK  Name = 131752326
REMARK  14 active torsions:
REMARK  status: ('A' for Active; 'I' for Inactive)
REMARK    1  A    between atoms: O_1  and  C_26
REMARK    2  A    between atoms: O_1  and  C_28
REMARK    3  A    between atoms: O_4  and  C_29
REMARK    4  A    between atoms: O_4  and  C_44
REMARK    5  A    between atoms: O_6  and  C_32
REMARK    6  A    between atoms: O_6  and  C_43
REMARK    7  A    between atoms: O_15  and  C_42
REMARK    8  A    between atoms: O_15  and  C_52
REMARK    9  A    between atoms: C_34  and  C_36
REMARK   10  A    between atoms: C_35  and  C_37
REMARK   11  A    between atoms: C_41  and  C_47
REMARK   12  A    between atoms: C_44  and  C_48
REMARK   13  A    between atoms: C_51  and  C_53
REMARK   14  A    between atoms: C_55  and  C_62
REMARK                            x       y       z     vdW  Elec       q    Type
REMARK                         _______ _______ _______ _____ _____    ______ ____
ROOT
ATOM      1  O   UNL     1       4.236  -2.288   0.000  0.00  0.00    +0.000 OA
ATOM      2  O   UNL     1       4.236  -4.763   0.000  0.00  0.00    +0.000 OA
ATOM      3  O   UNL     1       2.808  -3.938   0.000  0.00  0.00    +0.000 OA
ATOM      4  C   UNL     1       4.951  -3.526   0.000  0.00  0.00    +0.000 C 
ATOM      5  C   UNL     1       4.236  -3.938   0.000  0.00  0.00    +0.000 C 
ATOM      6  C   UNL     1       3.522  -3.526   0.000  0.00  0.00    +0.000 C 
ATOM      7  C   UNL     1       4.951  -2.701   0.000  0.00  0.00    +0.000 C 
ATOM      8  C   UNL     1       3.522  -2.701   0.000  0.00  0.00    +0.000 C 
ENDROOT
BRANCH   8  11
ATOM      9  O   UNL     1       2.093  -2.701   0.000  0.00  0.00    +0.000 OA
ATOM     10  O   UNL     1       2.808  -1.463   0.000  0.00  0.00    +0.000 OA
ATOM     11  C   UNL     1       2.808  -2.288   0.000  0.00  0.00    +0.000 C 
ENDBRANCH   8  11
BRANCH   4  12
ATOM     12  O   UNL     1       5.665  -3.938   0.000  0.00  0.00    +0.000 OA
BRANCH  12  16
ATOM     13  O   UNL     1       4.951  -5.176   0.000  0.00  0.00    +0.000 OA
ATOM     14  O   UNL     1       7.094  -6.413   0.000  0.00  0.00    +0.000 OA
ATOM     15  O   UNL     1       5.665  -7.238   0.000  0.00  0.00    +0.000 OA
ATOM     16  C   UNL     1       5.665  -4.763   0.000  0.00  0.00    +0.000 C 
ATOM     17  C   UNL     1       6.380  -5.176   0.000  0.00  0.00    +0.000 C 
ATOM     18  C   UNL     1       6.380  -6.001   0.000  0.00  0.00    +0.000 C 
ATOM     19  C   UNL     1       5.665  -6.413   0.000  0.00  0.00    +0.000 C 
ATOM     20  C   UNL     1       4.951  -6.001   0.000  0.00  0.00    +0.000 C 
BRANCH  20  23
ATOM     21  O   UNL     1       4.236  -7.238   0.000  0.00  0.00    +0.000 OA
ATOM     22  O   UNL     1       3.522  -6.001   0.000  0.00  0.00    +0.000 OA
ATOM     23  C   UNL     1       4.236  -6.413   0.000  0.00  0.00    +0.000 C 
ENDBRANCH  20  23
BRANCH  17  24
ATOM     24  O   UNL     1       7.094  -4.763   0.000  0.00  0.00    +0.000 OA
BRANCH  24  26
ATOM     25  O   UNL     1       7.809  -6.001   0.000  0.00  0.00    +0.000 OA
ATOM     26  C   UNL     1       7.809  -5.176   0.000  0.00  0.00    +0.000 C 
BRANCH  26  27
ATOM     27  C   UNL     1       8.523  -4.763   0.000  0.00  0.00    +0.000 C 
ATOM     28  C   UNL     1       9.238  -5.176   0.000  0.00  0.00    +0.000 C 
BRANCH  28  30
ATOM     29  O   UNL     1      12.096  -3.526   0.000  0.00  0.00    +0.000 OA
ATOM     30  C   UNL     1       9.952  -4.763   0.000  0.00  0.00    +0.000 A 
ATOM     31  C   UNL     1      10.667  -5.176   0.000  0.00  0.00    +0.000 A 
ATOM     32  C   UNL     1       9.952  -3.938   0.000  0.00  0.00    +0.000 A 
ATOM     33  C   UNL     1      11.381  -4.763   0.000  0.00  0.00    +0.000 A 
ATOM     34  C   UNL     1      10.667  -3.526   0.000  0.00  0.00    +0.000 A 
ATOM     35  C   UNL     1      11.381  -3.938   0.000  0.00  0.00    +0.000 A 
ENDBRANCH  28  30
ENDBRANCH  26  27
ENDBRANCH  24  26
ENDBRANCH  17  24
ENDBRANCH  12  16
ENDBRANCH   4  12
BRANCH   7  36
ATOM     36  O   UNL     1       5.665  -2.288   0.000  0.00  0.00    +0.000 OA
BRANCH  36  37
ATOM     37  C   UNL     1       5.665  -1.463   0.000  0.00  0.00    +0.000 A 
ATOM     38  C   UNL     1       6.380  -1.051   0.000  0.00  0.00    +0.000 A 
ATOM     39  C   UNL     1       4.951  -1.051   0.000  0.00  0.00    +0.000 A 
ATOM     40  C   UNL     1       6.380  -0.226   0.000  0.00  0.00    +0.000 A 
ATOM     41  C   UNL     1       4.951  -0.226   0.000  0.00  0.00    +0.000 A 
ATOM     42  C   UNL     1       5.665   0.187   0.000  0.00  0.00    +0.000 A 
BRANCH  42  47
ATOM     43  O   UNL     1       6.380   1.424   0.000  0.00  0.00    +0.000 OA
ATOM     44  O   UNL     1       4.933   3.925   0.000  0.00  0.00    +0.000 OA
ATOM     45  O   UNL     1       4.236   2.662   0.000  0.00  0.00    +0.000 OA
ATOM     46  C   UNL     1       7.137   3.527   0.000  0.00  0.00    +0.000 A 
ATOM     47  C   UNL     1       5.665   1.012   0.000  0.00  0.00    +0.000 A 
ATOM     48  C   UNL     1       7.131   2.667   0.000  0.00  0.00    +0.000 A 
ATOM     49  C   UNL     1       6.380   2.249   0.000  0.00  0.00    +0.000 A 
ATOM     50  C   UNL     1       6.393   3.957   0.000  0.00  0.00    +0.000 A 
ATOM     51  C   UNL     1       5.665   2.662   0.000  0.00  0.00    +0.000 A 
ATOM     52  C   UNL     1       5.652   3.521   0.000  0.00  0.00    +0.000 A 
ATOM     53  C   UNL     1       4.951   1.424   0.000  0.00  0.00    +0.000 A 
ATOM     54  C   UNL     1       4.951   2.249   0.000  0.00  0.00    +0.000 A 
BRANCH  46  55
ATOM     55  O   UNL     1       7.853   3.937   0.000  0.00  0.00    +0.000 OA
BRANCH  55  64
ATOM     56  O   UNL     1       8.572   5.171   0.000  0.00  0.00    +0.000 OA
ATOM     57  O   UNL     1       6.434   6.417   0.000  0.00  0.00    +0.000 OA
ATOM     58  O   UNL     1       7.866   7.237   0.000  0.00  0.00    +0.000 OA
ATOM     59  O   UNL     1       6.428   4.767   0.000  0.00  0.00    +0.000 OA
ATOM     60  C   UNL     1       7.147   6.002   0.000  0.00  0.00    +0.000 C 
ATOM     61  C   UNL     1       7.863   6.412   0.000  0.00  0.00    +0.000 C 
ATOM     62  C   UNL     1       7.144   5.177   0.000  0.00  0.00    +0.000 C 
ATOM     63  C   UNL     1       8.576   5.996   0.000  0.00  0.00    +0.000 C 
ATOM     64  C   UNL     1       7.856   4.761   0.000  0.00  0.00    +0.000 C 
BRANCH  63  67
ATOM     65  O   UNL     1      10.005   5.991   0.000  0.00  0.00    +0.000 OA
ATOM     66  O   UNL     1       9.295   7.231   0.000  0.00  0.00    +0.000 OA
ATOM     67  C   UNL     1       9.292   6.406   0.000  0.00  0.00    +0.000 C 
ENDBRANCH  63  67
ENDBRANCH  55  64
ENDBRANCH  46  55
ENDBRANCH  42  47
ENDBRANCH  36  37
ENDBRANCH   7  36
TORSDOF 14
