REMARK  Name = 44257892
REMARK  9 active torsions:
REMARK  status: ('A' for Active; 'I' for Inactive)
REMARK    1  A    between atoms: O_3  and  C_22
REMARK    2  A    between atoms: O_3  and  C_25
REMARK    3  A    between atoms: O_4  and  C_21
REMARK    4  A    between atoms: O_4  and  C_29
REMARK    5  A    between atoms: O_9  and  C_26
REMARK    6  A    between atoms: O_9  and  C_28
REMARK    7  A    between atoms: O_15  and  C_44
REMARK    8  A    between atoms: C_16  and  C_25
REMARK    9  A    between atoms: C_37  and  C_39
REMARK                            x       y       z     vdW  Elec       q    Type
REMARK                         _______ _______ _______ _____ _____    ______ ____
ROOT
ATOM      1  O   UNL     1       7.366   0.388   0.000  0.00  0.00    +0.000 OA
ATOM      2  O   UNL     1       5.937   2.038   0.000  0.00  0.00    +0.000 OA
ATOM      3  O   UNL     1       7.366   2.863   0.000  0.00  0.00    +0.000 OA
ATOM      4  O   UNL     1       8.795   2.038   0.000  0.00  0.00    +0.000 OA
ATOM      5  C   UNL     1       6.651   0.800   0.000  0.00  0.00    +0.000 C 
ATOM      6  C   UNL     1       6.651   1.625   0.000  0.00  0.00    +0.000 C 
ATOM      7  C   UNL     1       7.366   2.038   0.000  0.00  0.00    +0.000 C 
ATOM      8  C   UNL     1       8.080   1.625   0.000  0.00  0.00    +0.000 C 
ATOM      9  C   UNL     1       8.080   0.800   0.000  0.00  0.00    +0.000 C 
ENDROOT
BRANCH   9  10
ATOM     10  O   UNL     1       8.795   0.388   0.000  0.00  0.00    +0.000 OA
BRANCH  10  14
ATOM     11  O   UNL     1      11.707   0.396   0.000  0.00  0.00    +0.000 OA
ATOM     12  O   UNL     1      10.274   2.905   0.000  0.00  0.00    +0.000 OA
ATOM     13  O   UNL     1      11.717   2.871   0.000  0.00  0.00    +0.000 OA
ATOM     14  C   UNL     1       9.509   0.800   0.000  0.00  0.00    +0.000 A 
ATOM     15  C   UNL     1      10.255   0.373   0.000  0.00  0.00    +0.000 A 
ATOM     16  C   UNL     1       9.512   1.660   0.000  0.00  0.00    +0.000 A 
ATOM     17  C   UNL     1      10.994   0.812   0.000  0.00  0.00    +0.000 A 
ATOM     18  C   UNL     1      10.262   2.081   0.000  0.00  0.00    +0.000 A 
ATOM     19  C   UNL     1      10.997   1.637   0.000  0.00  0.00    +0.000 A 
ATOM     20  C   UNL     1      11.713   2.046   0.000  0.00  0.00    +0.000 A 
ATOM     21  C   UNL     1      12.423   0.806   0.000  0.00  0.00    +0.000 A 
ATOM     22  C   UNL     1      12.426   1.631   0.000  0.00  0.00    +0.000 A 
BRANCH  21  23
ATOM     23  C   UNL     1      13.136   0.391   0.000  0.00  0.00    +0.000 A 
ATOM     24  C   UNL     1      13.852   0.801   0.000  0.00  0.00    +0.000 A 
ATOM     25  C   UNL     1      13.133  -0.434   0.000  0.00  0.00    +0.000 A 
ATOM     26  C   UNL     1      14.565   0.385   0.000  0.00  0.00    +0.000 A 
ATOM     27  C   UNL     1      13.846  -0.849   0.000  0.00  0.00    +0.000 A 
ATOM     28  C   UNL     1      14.562  -0.440   0.000  0.00  0.00    +0.000 A 
BRANCH  28  29
ATOM     29  O   UNL     1      15.275  -0.855   0.000  0.00  0.00    +0.000 OA
ATOM     30  C   UNL     1      15.991  -0.445   0.000  0.00  0.00    +0.000 C 
ENDBRANCH  28  29
ENDBRANCH  21  23
ENDBRANCH  10  14
ENDBRANCH   9  10
BRANCH   5  31
ATOM     31  C   UNL     1       5.937   0.388   0.000  0.00  0.00    +0.000 C 
BRANCH  31  32
ATOM     32  O   UNL     1       5.937  -0.437   0.000  0.00  0.00    +0.000 OA
BRANCH  32  39
ATOM     33  O   UNL     1       4.508  -0.437   0.000  0.00  0.00    +0.000 OA
ATOM     34  O   UNL     1       4.508  -2.912   0.000  0.00  0.00    +0.000 OA
ATOM     35  O   UNL     1       5.937  -2.087   0.000  0.00  0.00    +0.000 OA
ATOM     36  C   UNL     1       4.508  -2.087   0.000  0.00  0.00    +0.000 C 
ATOM     37  C   UNL     1       5.222  -1.675   0.000  0.00  0.00    +0.000 C 
ATOM     38  C   UNL     1       3.793  -1.675   0.000  0.00  0.00    +0.000 C 
ATOM     39  C   UNL     1       5.222  -0.850   0.000  0.00  0.00    +0.000 C 
ATOM     40  C   UNL     1       3.793  -0.850   0.000  0.00  0.00    +0.000 C 
ATOM     41  C   UNL     1       3.079  -0.437   0.000  0.00  0.00    +0.000 C 
BRANCH  38  42
ATOM     42  O   UNL     1       3.079  -2.087   0.000  0.00  0.00    +0.000 OA
BRANCH  42  44
ATOM     43  O   UNL     1       2.364  -0.850   0.000  0.00  0.00    +0.000 OA
ATOM     44  C   UNL     1       2.364  -1.675   0.000  0.00  0.00    +0.000 C 
ATOM     45  C   UNL     1       1.650  -2.087   0.000  0.00  0.00    +0.000 C 
ENDBRANCH  42  44
ENDBRANCH  38  42
ENDBRANCH  32  39
ENDBRANCH  31  32
ENDBRANCH   5  31
TORSDOF 9
