REMARK  Name = 44259744
REMARK  4 active torsions:
REMARK  status: ('A' for Active; 'I' for Inactive)
REMARK    1  A    between atoms: O_2  and  C_16
REMARK    2  A    between atoms: O_2  and  C_18
REMARK    3  A    between atoms: O_8  and  C_29
REMARK    4  A    between atoms: C_21  and  C_24
REMARK                            x       y       z     vdW  Elec       q    Type
REMARK                         _______ _______ _______ _____ _____    ______ ____
ROOT
ATOM      1  C   UNL     1       4.951  -1.473   0.000  0.00  0.00    +0.000 A 
ATOM      2  C   UNL     1       5.665  -1.061   0.000  0.00  0.00    +0.000 A 
ATOM      3  C   UNL     1       4.236  -1.061   0.000  0.00  0.00    +0.000 A 
ATOM      4  C   UNL     1       4.951   0.177   0.000  0.00  0.00    +0.000 A 
ATOM      5  C   UNL     1       5.665  -0.236   0.000  0.00  0.00    +0.000 A 
ATOM      6  C   UNL     1       4.236  -0.236   0.000  0.00  0.00    +0.000 A 
ENDROOT
BRANCH   4  12
ATOM      7  O   UNL     1       5.665   1.414   0.000  0.00  0.00    +0.000 OA
ATOM      8  O   UNL     1       3.522   1.002   0.000  0.00  0.00    +0.000 OA
ATOM      9  O   UNL     1       3.522   2.652   0.000  0.00  0.00    +0.000 OA
ATOM     10  O   UNL     1       5.675   4.771   0.000  0.00  0.00    +0.000 OA
ATOM     11  O   UNL     1       7.139   3.926   0.000  0.00  0.00    +0.000 OA
ATOM     12  C   UNL     1       4.951   1.002   0.000  0.00  0.00    +0.000 A 
ATOM     13  C   UNL     1       4.951   2.652   0.000  0.00  0.00    +0.000 A 
ATOM     14  C   UNL     1       5.665   2.239   0.000  0.00  0.00    +0.000 A 
ATOM     15  C   UNL     1       4.236   1.414   0.000  0.00  0.00    +0.000 A 
ATOM     16  C   UNL     1       4.236   2.239   0.000  0.00  0.00    +0.000 A 
ATOM     17  C   UNL     1       4.938   3.511   0.000  0.00  0.00    +0.000 A 
ATOM     18  C   UNL     1       6.416   2.658   0.000  0.00  0.00    +0.000 A 
ATOM     19  C   UNL     1       5.678   3.946   0.000  0.00  0.00    +0.000 A 
ATOM     20  C   UNL     1       6.423   3.517   0.000  0.00  0.00    +0.000 A 
BRANCH  17  21
ATOM     21  O   UNL     1       4.218   3.915   0.000  0.00  0.00    +0.000 OA
ATOM     22  C   UNL     1       4.209   4.740   0.000  0.00  0.00    +0.000 C 
ENDBRANCH  17  21
ENDBRANCH   4  12
BRANCH   1  23
ATOM     23  O   UNL     1       4.951  -2.298   0.000  0.00  0.00    +0.000 OA
BRANCH  23  32
ATOM     24  O   UNL     1       3.522  -2.298   0.000  0.00  0.00    +0.000 OA
ATOM     25  O   UNL     1       3.522  -4.773   0.000  0.00  0.00    +0.000 OA
ATOM     26  O   UNL     1       2.093  -3.948   0.000  0.00  0.00    +0.000 OA
ATOM     27  O   UNL     1       4.951  -3.948   0.000  0.00  0.00    +0.000 OA
ATOM     28  C   UNL     1       3.522  -3.948   0.000  0.00  0.00    +0.000 C 
ATOM     29  C   UNL     1       2.808  -3.536   0.000  0.00  0.00    +0.000 C 
ATOM     30  C   UNL     1       4.236  -3.536   0.000  0.00  0.00    +0.000 C 
ATOM     31  C   UNL     1       2.808  -2.711   0.000  0.00  0.00    +0.000 C 
ATOM     32  C   UNL     1       4.236  -2.711   0.000  0.00  0.00    +0.000 C 
ATOM     33  C   UNL     1       2.093  -2.298   0.000  0.00  0.00    +0.000 C 
ENDBRANCH  23  32
ENDBRANCH   1  23
TORSDOF 4
