REMARK  Name = 44259118
REMARK  8 active torsions:
REMARK  status: ('A' for Active; 'I' for Inactive)
REMARK    1  A    between atoms: O_2  and  C_20
REMARK    2  A    between atoms: O_2  and  C_22
REMARK    3  A    between atoms: O_6  and  C_21
REMARK    4  A    between atoms: O_6  and  C_26
REMARK    5  A    between atoms: C_18  and  C_21
REMARK    6  A    between atoms: C_23  and  C_28
REMARK    7  A    between atoms: C_26  and  C_30
REMARK    8  A    between atoms: C_30  and  C_39
REMARK                            x       y       z     vdW  Elec       q    Type
REMARK                         _______ _______ _______ _____ _____    ______ ____
ROOT
ATOM      1  O   UNL     1       9.238   1.002   0.000  0.00  0.00    +0.000 OA
ATOM      2  O   UNL     1       7.094  -0.236   0.000  0.00  0.00    +0.000 OA
ATOM      3  O   UNL     1       6.348   0.999   0.000  0.00  0.00    +0.000 OA
ATOM      4  O   UNL     1       7.799   3.534   0.000  0.00  0.00    +0.000 OA
ATOM      5  C   UNL     1       8.523  -0.236   0.000  0.00  0.00    +0.000 A 
ATOM      6  C   UNL     1       9.238   0.177   0.000  0.00  0.00    +0.000 A 
ATOM      7  C   UNL     1       7.809   0.177   0.000  0.00  0.00    +0.000 A 
ATOM      8  C   UNL     1       7.809   1.002   0.000  0.00  0.00    +0.000 A 
ATOM      9  C   UNL     1       8.523   1.414   0.000  0.00  0.00    +0.000 A 
ATOM     10  C   UNL     1       7.058   1.420   0.000  0.00  0.00    +0.000 A 
ATOM     11  C   UNL     1       8.536   2.273   0.000  0.00  0.00    +0.000 A 
ATOM     12  C   UNL     1       7.051   2.279   0.000  0.00  0.00    +0.000 A 
ATOM     13  C   UNL     1       7.796   2.709   0.000  0.00  0.00    +0.000 A 
ENDROOT
BRANCH   6  16
ATOM     14  O   UNL     1      12.096   0.177   0.000  0.00  0.00    +0.000 OA
ATOM     15  O   UNL     1      12.096  -1.473   0.000  0.00  0.00    +0.000 OA
ATOM     16  C   UNL     1       9.952  -0.236   0.000  0.00  0.00    +0.000 A 
ATOM     17  C   UNL     1      10.667   0.177   0.000  0.00  0.00    +0.000 A 
ATOM     18  C   UNL     1       9.952  -1.061   0.000  0.00  0.00    +0.000 A 
ATOM     19  C   UNL     1      11.381  -0.236   0.000  0.00  0.00    +0.000 A 
ATOM     20  C   UNL     1      10.667  -1.473   0.000  0.00  0.00    +0.000 A 
ATOM     21  C   UNL     1      11.381  -1.061   0.000  0.00  0.00    +0.000 A 
ENDBRANCH   6  16
BRANCH   5  22
ATOM     22  O   UNL     1       8.523  -1.061   0.000  0.00  0.00    +0.000 OA
BRANCH  22  31
ATOM     23  O   UNL     1       7.094  -1.061   0.000  0.00  0.00    +0.000 OA
ATOM     24  O   UNL     1       5.665  -2.711   0.000  0.00  0.00    +0.000 OA
ATOM     25  O   UNL     1       7.094  -3.536   0.000  0.00  0.00    +0.000 OA
ATOM     26  O   UNL     1       8.523  -2.711   0.000  0.00  0.00    +0.000 OA
ATOM     27  C   UNL     1       6.380  -2.298   0.000  0.00  0.00    +0.000 C 
ATOM     28  C   UNL     1       7.094  -2.711   0.000  0.00  0.00    +0.000 C 
ATOM     29  C   UNL     1       6.380  -1.473   0.000  0.00  0.00    +0.000 C 
ATOM     30  C   UNL     1       7.809  -2.298   0.000  0.00  0.00    +0.000 C 
ATOM     31  C   UNL     1       7.809  -1.473   0.000  0.00  0.00    +0.000 C 
BRANCH  29  32
ATOM     32  C   UNL     1       5.665  -1.061   0.000  0.00  0.00    +0.000 C 
BRANCH  32  33
ATOM     33  O   UNL     1       4.951  -1.473   0.000  0.00  0.00    +0.000 OA
BRANCH  33  35
ATOM     34  O   UNL     1       4.236  -0.236   0.000  0.00  0.00    +0.000 OA
ATOM     35  C   UNL     1       4.236  -1.061   0.000  0.00  0.00    +0.000 C 
BRANCH  35  36
ATOM     36  C   UNL     1       3.522  -1.473   0.000  0.00  0.00    +0.000 C 
BRANCH  36  39
ATOM     37  O   UNL     1       2.093  -1.473   0.000  0.00  0.00    +0.000 OA
ATOM     38  O   UNL     1       2.808  -0.236   0.000  0.00  0.00    +0.000 OA
ATOM     39  C   UNL     1       2.808  -1.061   0.000  0.00  0.00    +0.000 C 
ENDBRANCH  36  39
ENDBRANCH  35  36
ENDBRANCH  33  35
ENDBRANCH  32  33
ENDBRANCH  29  32
ENDBRANCH  22  31
ENDBRANCH   5  22
TORSDOF 8
