REMARK  Name = 44257948
REMARK  7 active torsions:
REMARK  status: ('A' for Active; 'I' for Inactive)
REMARK    1  A    between atoms: O_7  and  C_23
REMARK    2  A    between atoms: O_7  and  C_31
REMARK    3  A    between atoms: C_17  and  C_20
REMARK    4  A    between atoms: C_19  and  C_21
REMARK    5  A    between atoms: C_28  and  C_30
REMARK    6  A    between atoms: C_31  and  C_34
REMARK    7  A    between atoms: C_38  and  C_39
REMARK                            x       y       z     vdW  Elec       q    Type
REMARK                         _______ _______ _______ _____ _____    ______ ____
ROOT
ATOM      1  O   UNL     1       9.532   0.384   0.000  0.00  0.00    +0.000 OA
ATOM      2  O   UNL     1       8.080   2.888   0.000  0.00  0.00    +0.000 OA
ATOM      3  O   UNL     1       9.523   2.916   0.000  0.00  0.00    +0.000 OA
ATOM      4  C   UNL     1       8.080   0.412   0.000  0.00  0.00    +0.000 A 
ATOM      5  C   UNL     1       8.795   0.825   0.000  0.00  0.00    +0.000 A 
ATOM      6  C   UNL     1       7.366   0.825   0.000  0.00  0.00    +0.000 A 
ATOM      7  C   UNL     1       8.795   1.650   0.000  0.00  0.00    +0.000 A 
ATOM      8  C   UNL     1       7.366   1.650   0.000  0.00  0.00    +0.000 A 
ATOM      9  C   UNL     1       8.080   2.062   0.000  0.00  0.00    +0.000 A 
ATOM     10  C   UNL     1       9.532   2.091   0.000  0.00  0.00    +0.000 A 
ATOM     11  C   UNL     1      10.280   0.808   0.000  0.00  0.00    +0.000 A 
ATOM     12  C   UNL     1      10.280   1.667   0.000  0.00  0.00    +0.000 A 
ENDROOT
BRANCH   4  19
ATOM     13  O   UNL     1       8.795  -0.825   0.000  0.00  0.00    +0.000 OA
ATOM     14  O   UNL     1       6.651  -0.412   0.000  0.00  0.00    +0.000 OA
ATOM     15  O   UNL     1       6.651  -2.062   0.000  0.00  0.00    +0.000 OA
ATOM     16  O   UNL     1       8.080  -2.888   0.000  0.00  0.00    +0.000 OA
ATOM     17  C   UNL     1       7.366  -0.825   0.000  0.00  0.00    +0.000 C 
ATOM     18  C   UNL     1       7.366  -1.650   0.000  0.00  0.00    +0.000 C 
ATOM     19  C   UNL     1       8.080  -0.412   0.000  0.00  0.00    +0.000 C 
ATOM     20  C   UNL     1       8.080  -2.062   0.000  0.00  0.00    +0.000 C 
ATOM     21  C   UNL     1       8.795  -1.650   0.000  0.00  0.00    +0.000 C 
BRANCH  21  23
ATOM     22  O   UNL     1       9.509  -2.888   0.000  0.00  0.00    +0.000 OA
ATOM     23  C   UNL     1       9.509  -2.062   0.000  0.00  0.00    +0.000 C 
ENDBRANCH  21  23
ENDBRANCH   4  19
BRANCH  11  26
ATOM     24  O   UNL     1      11.699  -1.673   0.000  0.00  0.00    +0.000 OA
ATOM     25  O   UNL     1      13.131  -0.853   0.000  0.00  0.00    +0.000 OA
ATOM     26  C   UNL     1      10.993   0.393   0.000  0.00  0.00    +0.000 A 
ATOM     27  C   UNL     1      10.989  -0.432   0.000  0.00  0.00    +0.000 A 
ATOM     28  C   UNL     1      11.709   0.802   0.000  0.00  0.00    +0.000 A 
ATOM     29  C   UNL     1      11.702  -0.848   0.000  0.00  0.00    +0.000 A 
ATOM     30  C   UNL     1      12.421   0.387   0.000  0.00  0.00    +0.000 A 
ATOM     31  C   UNL     1      12.418  -0.438   0.000  0.00  0.00    +0.000 A 
ENDBRANCH  11  26
BRANCH   6  32
ATOM     32  O   UNL     1       6.651   0.412   0.000  0.00  0.00    +0.000 OA
BRANCH  32  34
ATOM     33  O   UNL     1       5.937   1.650   0.000  0.00  0.00    +0.000 OA
ATOM     34  C   UNL     1       5.937   0.825   0.000  0.00  0.00    +0.000 C 
BRANCH  34  35
ATOM     35  C   UNL     1       5.222   0.412   0.000  0.00  0.00    +0.000 C 
ATOM     36  C   UNL     1       4.508   0.825   0.000  0.00  0.00    +0.000 C 
BRANCH  36  39
ATOM     37  O   UNL     1       1.650   0.825   0.000  0.00  0.00    +0.000 OA
ATOM     38  O   UNL     1       1.650  -0.825   0.000  0.00  0.00    +0.000 OA
ATOM     39  C   UNL     1       3.793   0.412   0.000  0.00  0.00    +0.000 A 
ATOM     40  C   UNL     1       3.079   0.825   0.000  0.00  0.00    +0.000 A 
ATOM     41  C   UNL     1       3.793  -0.412   0.000  0.00  0.00    +0.000 A 
ATOM     42  C   UNL     1       2.364   0.412   0.000  0.00  0.00    +0.000 A 
ATOM     43  C   UNL     1       3.079  -0.825   0.000  0.00  0.00    +0.000 A 
ATOM     44  C   UNL     1       2.364  -0.412   0.000  0.00  0.00    +0.000 A 
ENDBRANCH  36  39
ENDBRANCH  34  35
ENDBRANCH  32  34
ENDBRANCH   6  32
TORSDOF 7
