REMARK  Name = 44258532
REMARK  7 active torsions:
REMARK  status: ('A' for Active; 'I' for Inactive)
REMARK    1  A    between atoms: O_2  and  C_17
REMARK    2  A    between atoms: O_2  and  C_19
REMARK    3  A    between atoms: O_7  and  C_21
REMARK    4  A    between atoms: O_8  and  C_23
REMARK    5  A    between atoms: O_10  and  C_33
REMARK    6  A    between atoms: O_11  and  C_34
REMARK    7  A    between atoms: C_26  and  C_28
REMARK                            x       y       z     vdW  Elec       q    Type
REMARK                         _______ _______ _______ _____ _____    ______ ____
ROOT
ATOM      1  O   UNL     1       6.403   1.384   0.000  0.00  0.00    +0.000 OA
ATOM      2  O   UNL     1       6.393  -1.148   0.000  0.00  0.00    +0.000 OA
ATOM      3  C   UNL     1       4.951  -0.295   0.000  0.00  0.00    +0.000 A 
ATOM      4  C   UNL     1       5.665   0.118   0.000  0.00  0.00    +0.000 A 
ATOM      5  C   UNL     1       4.236   0.118   0.000  0.00  0.00    +0.000 A 
ATOM      6  C   UNL     1       5.665   0.943   0.000  0.00  0.00    +0.000 A 
ATOM      7  C   UNL     1       4.236   0.943   0.000  0.00  0.00    +0.000 A 
ATOM      8  C   UNL     1       6.403  -0.323   0.000  0.00  0.00    +0.000 A 
ATOM      9  C   UNL     1       4.951   1.355   0.000  0.00  0.00    +0.000 A 
ATOM     10  C   UNL     1       7.150   0.960   0.000  0.00  0.00    +0.000 A 
ATOM     11  C   UNL     1       7.150   0.101   0.000  0.00  0.00    +0.000 A 
ENDROOT
BRANCH  10  13
ATOM     12  O   UNL     1      10.002   2.621   0.000  0.00  0.00    +0.000 OA
ATOM     13  C   UNL     1       7.863   1.375   0.000  0.00  0.00    +0.000 A 
ATOM     14  C   UNL     1       8.579   0.966   0.000  0.00  0.00    +0.000 A 
ATOM     15  C   UNL     1       7.860   2.200   0.000  0.00  0.00    +0.000 A 
ATOM     16  C   UNL     1       8.573   2.616   0.000  0.00  0.00    +0.000 A 
ATOM     17  C   UNL     1       9.292   1.381   0.000  0.00  0.00    +0.000 A 
ATOM     18  C   UNL     1       9.289   2.206   0.000  0.00  0.00    +0.000 A 
BRANCH  16  19
ATOM     19  O   UNL     1       8.570   3.441   0.000  0.00  0.00    +0.000 OA
ATOM     20  C   UNL     1       7.854   3.850   0.000  0.00  0.00    +0.000 C 
ENDBRANCH  16  19
BRANCH  17  21
ATOM     21  O   UNL     1      10.008   0.971   0.000  0.00  0.00    +0.000 OA
ATOM     22  C   UNL     1      10.011   0.146   0.000  0.00  0.00    +0.000 C 
ENDBRANCH  17  21
ENDBRANCH  10  13
BRANCH   5  23
ATOM     23  O   UNL     1       3.522  -0.295   0.000  0.00  0.00    +0.000 OA
ATOM     24  C   UNL     1       2.808   0.118   0.000  0.00  0.00    +0.000 C 
ENDBRANCH   5  23
BRANCH   7  25
ATOM     25  O   UNL     1       3.522   1.355   0.000  0.00  0.00    +0.000 OA
ATOM     26  C   UNL     1       3.522   2.180   0.000  0.00  0.00    +0.000 C 
ENDBRANCH   7  25
BRANCH   3  27
ATOM     27  O   UNL     1       4.951  -1.120   0.000  0.00  0.00    +0.000 OA
BRANCH  27  36
ATOM     28  O   UNL     1       3.522  -1.120   0.000  0.00  0.00    +0.000 OA
ATOM     29  O   UNL     1       3.522  -3.595   0.000  0.00  0.00    +0.000 OA
ATOM     30  O   UNL     1       2.093  -2.770   0.000  0.00  0.00    +0.000 OA
ATOM     31  O   UNL     1       4.951  -2.770   0.000  0.00  0.00    +0.000 OA
ATOM     32  C   UNL     1       3.522  -2.770   0.000  0.00  0.00    +0.000 C 
ATOM     33  C   UNL     1       2.808  -2.357   0.000  0.00  0.00    +0.000 C 
ATOM     34  C   UNL     1       4.236  -2.357   0.000  0.00  0.00    +0.000 C 
ATOM     35  C   UNL     1       2.808  -1.532   0.000  0.00  0.00    +0.000 C 
ATOM     36  C   UNL     1       4.236  -1.532   0.000  0.00  0.00    +0.000 C 
ATOM     37  C   UNL     1       2.093  -1.120   0.000  0.00  0.00    +0.000 C 
ENDBRANCH  27  36
ENDBRANCH   3  27
TORSDOF 7
