REMARK  Name = 131750827
REMARK  10 active torsions:
REMARK  status: ('A' for Active; 'I' for Inactive)
REMARK    1  A    between atoms: O_1  and  C_15
REMARK    2  A    between atoms: O_1  and  C_18
REMARK    3  A    between atoms: O_5  and  C_20
REMARK    4  A    between atoms: O_5  and  C_26
REMARK    5  A    between atoms: C_21  and  C_24
REMARK    6  A    between atoms: C_23  and  C_25
REMARK    7  A    between atoms: C_27  and  C_30
REMARK    8  A    between atoms: C_30  and  C_33
REMARK    9  A    between atoms: C_33  and  C_34
REMARK   10  A    between atoms: C_34  and  C_35
REMARK                            x       y       z     vdW  Elec       q    Type
REMARK                         _______ _______ _______ _____ _____    ______ ____
ROOT
ATOM      1  O   UNL     1       5.665   0.678   0.000  0.00  0.00    +0.000 OA
ENDROOT
BRANCH   1   8
ATOM      2  O   UNL     1       4.236   0.678   0.000  0.00  0.00    +0.000 OA
ATOM      3  O   UNL     1       4.236  -1.797   0.000  0.00  0.00    +0.000 OA
ATOM      4  O   UNL     1       2.808  -0.972   0.000  0.00  0.00    +0.000 OA
ATOM      5  C   UNL     1       4.951  -0.560   0.000  0.00  0.00    +0.000 C 
ATOM      6  C   UNL     1       4.236  -0.972   0.000  0.00  0.00    +0.000 C 
ATOM      7  C   UNL     1       3.522  -0.560   0.000  0.00  0.00    +0.000 C 
ATOM      8  C   UNL     1       4.951   0.265   0.000  0.00  0.00    +0.000 C 
ATOM      9  C   UNL     1       3.522   0.265   0.000  0.00  0.00    +0.000 C 
BRANCH   9  11
ATOM     10  O   UNL     1       2.093   0.265   0.000  0.00  0.00    +0.000 OA
ATOM     11  C   UNL     1       2.808   0.678   0.000  0.00  0.00    +0.000 C 
ENDBRANCH   9  11
BRANCH   5  12
ATOM     12  O   UNL     1       5.665  -0.972   0.000  0.00  0.00    +0.000 OA
BRANCH  12  16
ATOM     13  O   UNL     1       4.998  -2.282   0.000  0.00  0.00    +0.000 OA
ATOM     14  O   UNL     1       7.117  -2.027   0.000  0.00  0.00    +0.000 OA
ATOM     15  O   UNL     1       6.563  -3.734   0.000  0.00  0.00    +0.000 OA
ATOM     16  C   UNL     1       5.665  -1.797   0.000  0.00  0.00    +0.000 C 
ATOM     17  C   UNL     1       6.333  -2.282   0.000  0.00  0.00    +0.000 C 
ATOM     18  C   UNL     1       6.078  -3.067   0.000  0.00  0.00    +0.000 C 
ATOM     19  C   UNL     1       5.253  -3.067   0.000  0.00  0.00    +0.000 C 
BRANCH  19  21
ATOM     20  O   UNL     1       5.104  -4.488   0.000  0.00  0.00    +0.000 OA
ATOM     21  C   UNL     1       4.768  -3.734   0.000  0.00  0.00    +0.000 C 
ENDBRANCH  19  21
ENDBRANCH  12  16
ENDBRANCH   5  12
ENDBRANCH   1   8
BRANCH   1  24
ATOM     22  O   UNL     1       7.094   3.153   0.000  0.00  0.00    +0.000 OA
ATOM     23  O   UNL     1       4.236   3.153   0.000  0.00  0.00    +0.000 OA
ATOM     24  C   UNL     1       5.665   1.503   0.000  0.00  0.00    +0.000 A 
ATOM     25  C   UNL     1       6.380   1.915   0.000  0.00  0.00    +0.000 A 
ATOM     26  C   UNL     1       4.951   1.915   0.000  0.00  0.00    +0.000 A 
ATOM     27  C   UNL     1       6.380   2.740   0.000  0.00  0.00    +0.000 A 
ATOM     28  C   UNL     1       4.951   2.740   0.000  0.00  0.00    +0.000 A 
ATOM     29  C   UNL     1       5.665   3.153   0.000  0.00  0.00    +0.000 A 
BRANCH  25  31
ATOM     30  O   UNL     1       7.094   0.678   0.000  0.00  0.00    +0.000 OA
ATOM     31  C   UNL     1       7.094   1.503   0.000  0.00  0.00    +0.000 C 
BRANCH  31  32
ATOM     32  C   UNL     1       7.809   1.915   0.000  0.00  0.00    +0.000 C 
BRANCH  32  33
ATOM     33  C   UNL     1       7.809   2.740   0.000  0.00  0.00    +0.000 C 
BRANCH  33  35
ATOM     34  O   UNL     1      10.667   4.390   0.000  0.00  0.00    +0.000 OA
ATOM     35  C   UNL     1       8.523   3.153   0.000  0.00  0.00    +0.000 A 
ATOM     36  C   UNL     1       9.238   2.740   0.000  0.00  0.00    +0.000 A 
ATOM     37  C   UNL     1       8.523   3.978   0.000  0.00  0.00    +0.000 A 
ATOM     38  C   UNL     1       9.952   3.153   0.000  0.00  0.00    +0.000 A 
ATOM     39  C   UNL     1       9.238   4.390   0.000  0.00  0.00    +0.000 A 
ATOM     40  C   UNL     1       9.952   3.978   0.000  0.00  0.00    +0.000 A 
ENDBRANCH  33  35
ENDBRANCH  32  33
ENDBRANCH  31  32
ENDBRANCH  25  31
ENDBRANCH   1  24
TORSDOF 10
