REMARK  Name = 5464499
REMARK  8 active torsions:
REMARK  status: ('A' for Active; 'I' for Inactive)
REMARK    1  A    between atoms: O_2  and  C_22
REMARK    2  A    between atoms: O_2  and  C_26
REMARK    3  A    between atoms: O_6  and  C_25
REMARK    4  A    between atoms: O_6  and  C_29
REMARK    5  A    between atoms: O_14  and  C_40
REMARK    6  A    between atoms: O_15  and  C_41
REMARK    7  A    between atoms: C_17  and  C_26
REMARK    8  A    between atoms: C_30  and  C_33
REMARK                            x       y       z     vdW  Elec       q    Type
REMARK                         _______ _______ _______ _____ _____    ______ ____
ROOT
ATOM      1  O   UNL     1       5.278   2.603   0.000  0.00  0.00    +0.000 OA
ATOM      2  O   UNL     1       5.278   0.128   0.000  0.00  0.00    +0.000 OA
ATOM      3  O   UNL     1       3.836   0.099   0.000  0.00  0.00    +0.000 OA
ATOM      4  C   UNL     1       5.993   1.365   0.000  0.00  0.00    +0.000 A 
ATOM      5  C   UNL     1       5.993   2.190   0.000  0.00  0.00    +0.000 A 
ATOM      6  C   UNL     1       5.278   0.953   0.000  0.00  0.00    +0.000 A 
ATOM      7  C   UNL     1       4.564   1.365   0.000  0.00  0.00    +0.000 A 
ATOM      8  C   UNL     1       4.564   2.190   0.000  0.00  0.00    +0.000 A 
ATOM      9  C   UNL     1       3.826   0.924   0.000  0.00  0.00    +0.000 A 
ATOM     10  C   UNL     1       3.826   2.631   0.000  0.00  0.00    +0.000 A 
ATOM     11  C   UNL     1       3.079   1.348   0.000  0.00  0.00    +0.000 A 
ATOM     12  C   UNL     1       3.079   2.208   0.000  0.00  0.00    +0.000 A 
ENDROOT
BRANCH   5  14
ATOM     13  O   UNL     1       8.851   3.840   0.000  0.00  0.00    +0.000 OA
ATOM     14  C   UNL     1       6.707   2.603   0.000  0.00  0.00    +0.000 A 
ATOM     15  C   UNL     1       6.707   3.428   0.000  0.00  0.00    +0.000 A 
ATOM     16  C   UNL     1       7.422   2.190   0.000  0.00  0.00    +0.000 A 
ATOM     17  C   UNL     1       7.422   3.840   0.000  0.00  0.00    +0.000 A 
ATOM     18  C   UNL     1       8.136   2.603   0.000  0.00  0.00    +0.000 A 
ATOM     19  C   UNL     1       8.136   3.428   0.000  0.00  0.00    +0.000 A 
BRANCH  17  20
ATOM     20  O   UNL     1       7.422   4.665   0.000  0.00  0.00    +0.000 OA
ATOM     21  C   UNL     1       6.707   5.078   0.000  0.00  0.00    +0.000 C 
ENDBRANCH  17  20
ENDBRANCH   5  14
BRANCH  12  22
ATOM     22  O   UNL     1       2.366   2.623   0.000  0.00  0.00    +0.000 OA
ATOM     23  C   UNL     1       1.650   2.213   0.000  0.00  0.00    +0.000 C 
ENDBRANCH  12  22
BRANCH   4  24
ATOM     24  O   UNL     1       6.707   0.953   0.000  0.00  0.00    +0.000 OA
BRANCH  24  33
ATOM     25  O   UNL     1       5.993  -0.285   0.000  0.00  0.00    +0.000 OA
ATOM     26  O   UNL     1       6.707  -2.347   0.000  0.00  0.00    +0.000 OA
ATOM     27  O   UNL     1       8.136  -1.522   0.000  0.00  0.00    +0.000 OA
ATOM     28  O   UNL     1       8.136   0.128   0.000  0.00  0.00    +0.000 OA
ATOM     29  C   UNL     1       5.993  -1.110   0.000  0.00  0.00    +0.000 C 
ATOM     30  C   UNL     1       6.707  -1.522   0.000  0.00  0.00    +0.000 C 
ATOM     31  C   UNL     1       7.422  -1.110   0.000  0.00  0.00    +0.000 C 
ATOM     32  C   UNL     1       7.422  -0.285   0.000  0.00  0.00    +0.000 C 
ATOM     33  C   UNL     1       6.707   0.128   0.000  0.00  0.00    +0.000 C 
BRANCH  29  34
ATOM     34  C   UNL     1       5.278  -1.522   0.000  0.00  0.00    +0.000 C 
BRANCH  34  35
ATOM     35  O   UNL     1       5.278  -2.347   0.000  0.00  0.00    +0.000 OA
BRANCH  35  41
ATOM     36  O   UNL     1       3.849  -2.347   0.000  0.00  0.00    +0.000 OA
ATOM     37  O   UNL     1       5.278  -3.997   0.000  0.00  0.00    +0.000 OA
ATOM     38  O   UNL     1       3.849  -4.822   0.000  0.00  0.00    +0.000 OA
ATOM     39  O   UNL     1       2.421  -3.997   0.000  0.00  0.00    +0.000 OA
ATOM     40  C   UNL     1       4.564  -3.585   0.000  0.00  0.00    +0.000 C 
ATOM     41  C   UNL     1       4.564  -2.760   0.000  0.00  0.00    +0.000 C 
ATOM     42  C   UNL     1       3.849  -3.997   0.000  0.00  0.00    +0.000 C 
ATOM     43  C   UNL     1       3.135  -3.585   0.000  0.00  0.00    +0.000 C 
ATOM     44  C   UNL     1       3.135  -2.760   0.000  0.00  0.00    +0.000 C 
ATOM     45  C   UNL     1       2.421  -2.347   0.000  0.00  0.00    +0.000 C 
ENDBRANCH  35  41
ENDBRANCH  34  35
ENDBRANCH  29  34
ENDBRANCH  24  33
ENDBRANCH   4  24
TORSDOF 8
