REMARK  Name = 42608082
REMARK  6 active torsions:
REMARK  status: ('A' for Active; 'I' for Inactive)
REMARK    1  A    between atoms: O_2  and  C_16
REMARK    2  A    between atoms: O_2  and  C_18
REMARK    3  A    between atoms: O_9  and  C_27
REMARK    4  A    between atoms: O_10  and  C_32
REMARK    5  A    between atoms: C_15  and  C_17
REMARK    6  A    between atoms: C_20  and  C_25
REMARK                            x       y       z     vdW  Elec       q    Type
REMARK                         _______ _______ _______ _____ _____    ______ ____
ROOT
ATOM      1  O   UNL     1       7.136   1.598   0.000  0.00  0.00    +0.000 OA
ATOM      2  O   UNL     1       7.108  -0.877   0.000  0.00  0.00    +0.000 OA
ATOM      3  C   UNL     1       5.665  -0.064   0.000  0.00  0.00    +0.000 A 
ATOM      4  C   UNL     1       6.408   0.369   0.000  0.00  0.00    +0.000 A 
ATOM      5  C   UNL     1       7.846   1.177   0.000  0.00  0.00    +0.000 C 
ATOM      6  C   UNL     1       7.837   0.352   0.000  0.00  0.00    +0.000 C 
ATOM      7  C   UNL     1       6.417   1.194   0.000  0.00  0.00    +0.000 A 
ATOM      8  C   UNL     1       7.117  -0.052   0.000  0.00  0.00    +0.000 C 
ATOM      9  C   UNL     1       4.923   0.369   0.000  0.00  0.00    +0.000 A 
ATOM     10  C   UNL     1       5.685   1.643   0.000  0.00  0.00    +0.000 A 
ATOM     11  C   UNL     1       4.933   1.228   0.000  0.00  0.00    +0.000 A 
ENDROOT
BRANCH   5  13
ATOM     12  O   UNL     1      10.704   1.144   0.000  0.00  0.00    +0.000 OA
ATOM     13  C   UNL     1       8.565   1.582   0.000  0.00  0.00    +0.000 A 
ATOM     14  C   UNL     1       9.275   1.161   0.000  0.00  0.00    +0.000 A 
ATOM     15  C   UNL     1       8.575   2.407   0.000  0.00  0.00    +0.000 A 
ATOM     16  C   UNL     1       9.994   1.565   0.000  0.00  0.00    +0.000 A 
ATOM     17  C   UNL     1       9.294   2.811   0.000  0.00  0.00    +0.000 A 
ATOM     18  C   UNL     1      10.004   2.390   0.000  0.00  0.00    +0.000 A 
BRANCH  18  19
ATOM     19  O   UNL     1      10.723   2.794   0.000  0.00  0.00    +0.000 OA
ATOM     20  C   UNL     1      10.732   3.619   0.000  0.00  0.00    +0.000 C 
ENDBRANCH  18  19
ENDBRANCH   5  13
BRANCH  11  21
ATOM     21  O   UNL     1       4.225   1.652   0.000  0.00  0.00    +0.000 OA
ATOM     22  C   UNL     1       4.237   2.477   0.000  0.00  0.00    +0.000 C 
ENDBRANCH  11  21
BRANCH   3  23
ATOM     23  O   UNL     1       5.665  -0.888   0.000  0.00  0.00    +0.000 OA
BRANCH  23  32
ATOM     24  O   UNL     1       4.236  -0.888   0.000  0.00  0.00    +0.000 OA
ATOM     25  O   UNL     1       4.236  -3.364   0.000  0.00  0.00    +0.000 OA
ATOM     26  O   UNL     1       2.807  -2.538   0.000  0.00  0.00    +0.000 OA
ATOM     27  O   UNL     1       5.665  -2.538   0.000  0.00  0.00    +0.000 OA
ATOM     28  C   UNL     1       4.236  -2.538   0.000  0.00  0.00    +0.000 C 
ATOM     29  C   UNL     1       3.522  -2.126   0.000  0.00  0.00    +0.000 C 
ATOM     30  C   UNL     1       4.951  -2.126   0.000  0.00  0.00    +0.000 C 
ATOM     31  C   UNL     1       3.522  -1.301   0.000  0.00  0.00    +0.000 C 
ATOM     32  C   UNL     1       4.951  -1.301   0.000  0.00  0.00    +0.000 C 
BRANCH  31  34
ATOM     33  O   UNL     1       2.093  -1.301   0.000  0.00  0.00    +0.000 OA
ATOM     34  C   UNL     1       2.807  -0.888   0.000  0.00  0.00    +0.000 C 
ENDBRANCH  31  34
ENDBRANCH  23  32
ENDBRANCH   3  23
TORSDOF 6
