REMARK  Name = 10769313
REMARK  7 active torsions:
REMARK  status: ('A' for Active; 'I' for Inactive)
REMARK    1  A    between atoms: O_2  and  C_15
REMARK    2  A    between atoms: O_2  and  C_20
REMARK    3  A    between atoms: O_3  and  C_17
REMARK    4  A    between atoms: O_3  and  C_19
REMARK    5  A    between atoms: O_9  and  C_27
REMARK    6  A    between atoms: C_20  and  C_23
REMARK    7  A    between atoms: C_30  and  C_34
REMARK                            x       y       z     vdW  Elec       q    Type
REMARK                         _______ _______ _______ _____ _____    ______ ____
ROOT
ATOM      1  O   UNL     1       4.951  -0.276   0.000  0.00  0.00    +0.000 OA
ENDROOT
BRANCH   1   6
ATOM      2  O   UNL     1       6.399   2.251   0.000  0.00  0.00    +0.000 OA
ATOM      3  O   UNL     1       3.510   2.264   0.000  0.00  0.00    +0.000 OA
ATOM      4  O   UNL     1       4.261   3.496   0.000  0.00  0.00    +0.000 OA
ATOM      5  O   UNL     1       5.693   4.316   0.000  0.00  0.00    +0.000 OA
ATOM      6  C   UNL     1       4.951   0.549   0.000  0.00  0.00    +0.000 A 
ATOM      7  C   UNL     1       5.693   0.982   0.000  0.00  0.00    +0.000 A 
ATOM      8  C   UNL     1       4.208   0.982   0.000  0.00  0.00    +0.000 A 
ATOM      9  C   UNL     1       5.684   1.841   0.000  0.00  0.00    +0.000 A 
ATOM     10  C   UNL     1       4.971   2.256   0.000  0.00  0.00    +0.000 A 
ATOM     11  C   UNL     1       4.218   1.841   0.000  0.00  0.00    +0.000 A 
ATOM     12  C   UNL     1       4.974   3.081   0.000  0.00  0.00    +0.000 A 
ATOM     13  C   UNL     1       6.403   3.075   0.000  0.00  0.00    +0.000 A 
ATOM     14  C   UNL     1       5.690   3.491   0.000  0.00  0.00    +0.000 A 
BRANCH  13  16
ATOM     15  O   UNL     1       9.267   4.715   0.000  0.00  0.00    +0.000 OA
ATOM     16  C   UNL     1       7.119   3.485   0.000  0.00  0.00    +0.000 A 
ATOM     17  C   UNL     1       7.122   4.310   0.000  0.00  0.00    +0.000 A 
ATOM     18  C   UNL     1       7.832   3.070   0.000  0.00  0.00    +0.000 A 
ATOM     19  C   UNL     1       7.838   4.720   0.000  0.00  0.00    +0.000 A 
ATOM     20  C   UNL     1       8.548   3.480   0.000  0.00  0.00    +0.000 A 
ATOM     21  C   UNL     1       8.551   4.305   0.000  0.00  0.00    +0.000 A 
ENDBRANCH  13  16
ENDBRANCH   1   6
BRANCH   1  29
ATOM     22  O   UNL     1       3.522  -0.276   0.000  0.00  0.00    +0.000 OA
ATOM     23  O   UNL     1       3.522  -2.751   0.000  0.00  0.00    +0.000 OA
ATOM     24  O   UNL     1       2.093  -1.926   0.000  0.00  0.00    +0.000 OA
ATOM     25  C   UNL     1       3.522  -1.926   0.000  0.00  0.00    +0.000 C 
ATOM     26  C   UNL     1       2.808  -1.514   0.000  0.00  0.00    +0.000 C 
ATOM     27  C   UNL     1       4.236  -1.514   0.000  0.00  0.00    +0.000 C 
ATOM     28  C   UNL     1       2.808  -0.689   0.000  0.00  0.00    +0.000 C 
ATOM     29  C   UNL     1       4.236  -0.689   0.000  0.00  0.00    +0.000 C 
ATOM     30  C   UNL     1       2.093  -0.276   0.000  0.00  0.00    +0.000 C 
BRANCH  27  31
ATOM     31  O   UNL     1       4.951  -1.926   0.000  0.00  0.00    +0.000 OA
BRANCH  31  33
ATOM     32  O   UNL     1       4.236  -3.163   0.000  0.00  0.00    +0.000 OA
ATOM     33  C   UNL     1       4.951  -2.751   0.000  0.00  0.00    +0.000 C 
BRANCH  33  34
ATOM     34  C   UNL     1       5.665  -3.163   0.000  0.00  0.00    +0.000 A 
ATOM     35  C   UNL     1       5.665  -3.989   0.000  0.00  0.00    +0.000 A 
ATOM     36  C   UNL     1       6.380  -2.751   0.000  0.00  0.00    +0.000 A 
ATOM     37  C   UNL     1       6.380  -4.401   0.000  0.00  0.00    +0.000 A 
ATOM     38  C   UNL     1       7.094  -3.163   0.000  0.00  0.00    +0.000 A 
ATOM     39  C   UNL     1       7.094  -3.989   0.000  0.00  0.00    +0.000 A 
BRANCH  35  40
ATOM     40  O   UNL     1       4.951  -4.401   0.000  0.00  0.00    +0.000 OA
ATOM     41  C   UNL     1       4.951  -5.226   0.000  0.00  0.00    +0.000 C 
ENDBRANCH  35  40
ENDBRANCH  33  34
ENDBRANCH  31  33
ENDBRANCH  27  31
ENDBRANCH   1  29
TORSDOF 7
