REMARK  Name = 76970196
REMARK  4 active torsions:
REMARK  status: ('A' for Active; 'I' for Inactive)
REMARK    1  A    between atoms: O_2  and  C_17
REMARK    2  A    between atoms: O_2  and  C_24
REMARK    3  A    between atoms: C_18  and  C_25
REMARK    4  A    between atoms: C_19  and  C_22
REMARK                            x       y       z     vdW  Elec       q    Type
REMARK                         _______ _______ _______ _____ _____    ______ ____
ROOT
ATOM      1  O   UNL     1       7.843  -0.855   0.000  0.00  0.00    +0.000 OA
ATOM      2  O   UNL     1       7.843   0.795   0.000  0.00  0.00    +0.000 OA
ATOM      3  C   UNL     1       5.700   0.383   0.000  0.00  0.00    +0.000 A 
ATOM      4  C   UNL     1       6.414  -0.855   0.000  0.00  0.00    +0.000 A 
ATOM      5  C   UNL     1       5.700  -0.442   0.000  0.00  0.00    +0.000 A 
ATOM      6  C   UNL     1       6.414   0.795   0.000  0.00  0.00    +0.000 A 
ATOM      7  C   UNL     1       7.129  -0.442   0.000  0.00  0.00    +0.000 A 
ATOM      8  C   UNL     1       7.129   0.383   0.000  0.00  0.00    +0.000 A 
ENDROOT
BRANCH   3  13
ATOM      9  O   UNL     1       4.985   1.621   0.000  0.00  0.00    +0.000 OA
ATOM     10  O   UNL     1       4.271  -0.442   0.000  0.00  0.00    +0.000 OA
ATOM     11  O   UNL     1       2.096   1.618   0.000  0.00  0.00    +0.000 OA
ATOM     12  O   UNL     1       3.546   4.153   0.000  0.00  0.00    +0.000 OA
ATOM     13  C   UNL     1       4.985   0.795   0.000  0.00  0.00    +0.000 C 
ATOM     14  C   UNL     1       4.271   0.383   0.000  0.00  0.00    +0.000 C 
ATOM     15  C   UNL     1       3.556   0.795   0.000  0.00  0.00    +0.000 C 
ATOM     16  C   UNL     1       3.556   1.621   0.000  0.00  0.00    +0.000 A 
ATOM     17  C   UNL     1       4.271   2.033   0.000  0.00  0.00    +0.000 A 
ATOM     18  C   UNL     1       2.806   2.039   0.000  0.00  0.00    +0.000 A 
ATOM     19  C   UNL     1       4.284   2.892   0.000  0.00  0.00    +0.000 A 
ATOM     20  C   UNL     1       2.799   2.898   0.000  0.00  0.00    +0.000 A 
ATOM     21  C   UNL     1       3.543   3.328   0.000  0.00  0.00    +0.000 A 
ENDBRANCH   3  13
BRANCH   4  22
ATOM     22  O   UNL     1       6.414  -1.679   0.000  0.00  0.00    +0.000 OA
BRANCH  22  30
ATOM     23  O   UNL     1       4.985  -1.679   0.000  0.00  0.00    +0.000 OA
ATOM     24  O   UNL     1       4.985  -4.154   0.000  0.00  0.00    +0.000 OA
ATOM     25  O   UNL     1       6.414  -3.329   0.000  0.00  0.00    +0.000 OA
ATOM     26  O   UNL     1       3.556  -3.329   0.000  0.00  0.00    +0.000 OA
ATOM     27  C   UNL     1       4.985  -3.329   0.000  0.00  0.00    +0.000 C 
ATOM     28  C   UNL     1       5.700  -2.917   0.000  0.00  0.00    +0.000 C 
ATOM     29  C   UNL     1       4.271  -2.917   0.000  0.00  0.00    +0.000 C 
ATOM     30  C   UNL     1       5.700  -2.092   0.000  0.00  0.00    +0.000 C 
ATOM     31  C   UNL     1       4.271  -2.092   0.000  0.00  0.00    +0.000 C 
BRANCH  31  34
ATOM     32  O   UNL     1       2.842  -2.092   0.000  0.00  0.00    +0.000 OA
ATOM     33  O   UNL     1       3.556  -0.855   0.000  0.00  0.00    +0.000 OA
ATOM     34  C   UNL     1       3.556  -1.679   0.000  0.00  0.00    +0.000 C 
ENDBRANCH  31  34
ENDBRANCH  22  30
ENDBRANCH   4  22
TORSDOF 4
