REMARK  Name = 42607577
REMARK  14 active torsions:
REMARK  status: ('A' for Active; 'I' for Inactive)
REMARK    1  A    between atoms: O_2  and  C_19
REMARK    2  A    between atoms: O_2  and  C_24
REMARK    3  A    between atoms: O_5  and  C_21
REMARK    4  A    between atoms: O_5  and  C_23
REMARK    5  A    between atoms: O_6  and  C_22
REMARK    6  A    between atoms: O_6  and  C_27
REMARK    7  A    between atoms: C_20  and  C_22
REMARK    8  A    between atoms: C_24  and  C_28
REMARK    9  A    between atoms: C_27  and  C_32
REMARK   10  A    between atoms: C_31  and  C_34
REMARK   11  A    between atoms: C_33  and  C_35
REMARK   12  A    between atoms: C_34  and  C_37
REMARK   13  A    between atoms: C_36  and  C_38
REMARK   14  A    between atoms: C_43  and  C_47
REMARK                            x       y       z     vdW  Elec       q    Type
REMARK                         _______ _______ _______ _____ _____    ______ ____
ROOT
ATOM      1  O   UNL     1       9.238  -0.128   0.000  0.00  0.00    +0.000 OA
ATOM      2  O   UNL     1       9.238  -2.603   0.000  0.00  0.00    +0.000 OA
ATOM      3  O   UNL     1       7.809  -1.778   0.000  0.00  0.00    +0.000 OA
ATOM      4  C   UNL     1       9.238  -1.778   0.000  0.00  0.00    +0.000 C 
ATOM      5  C   UNL     1       8.523  -1.365   0.000  0.00  0.00    +0.000 C 
ATOM      6  C   UNL     1       9.952  -1.365   0.000  0.00  0.00    +0.000 C 
ATOM      7  C   UNL     1       8.523  -0.540   0.000  0.00  0.00    +0.000 C 
ATOM      8  C   UNL     1       9.952  -0.540   0.000  0.00  0.00    +0.000 C 
ENDROOT
BRANCH   6   9
ATOM      9  O   UNL     1      10.667  -1.778   0.000  0.00  0.00    +0.000 OA
BRANCH   9  11
ATOM     10  O   UNL     1       9.952  -3.015   0.000  0.00  0.00    +0.000 OA
ATOM     11  C   UNL     1      10.667  -2.603   0.000  0.00  0.00    +0.000 C 
BRANCH  11  12
ATOM     12  C   UNL     1      11.381  -3.015   0.000  0.00  0.00    +0.000 C 
ATOM     13  C   UNL     1      11.381  -3.841   0.000  0.00  0.00    +0.000 C 
BRANCH  13  16
ATOM     14  O   UNL     1      12.810  -6.316   0.000  0.00  0.00    +0.000 OA
ATOM     15  O   UNL     1      14.239  -5.490   0.000  0.00  0.00    +0.000 OA
ATOM     16  C   UNL     1      12.096  -4.253   0.000  0.00  0.00    +0.000 A 
ATOM     17  C   UNL     1      12.096  -5.078   0.000  0.00  0.00    +0.000 A 
ATOM     18  C   UNL     1      12.810  -3.841   0.000  0.00  0.00    +0.000 A 
ATOM     19  C   UNL     1      12.810  -5.490   0.000  0.00  0.00    +0.000 A 
ATOM     20  C   UNL     1      13.525  -4.253   0.000  0.00  0.00    +0.000 A 
ATOM     21  C   UNL     1      13.525  -5.078   0.000  0.00  0.00    +0.000 A 
ENDBRANCH  13  16
ENDBRANCH  11  12
ENDBRANCH   9  11
ENDBRANCH   6   9
BRANCH   8  22
ATOM     22  O   UNL     1      10.667  -0.128   0.000  0.00  0.00    +0.000 OA
BRANCH  22  25
ATOM     23  O   UNL     1       9.238   0.697   0.000  0.00  0.00    +0.000 OA
ATOM     24  O   UNL     1       9.238   2.347   0.000  0.00  0.00    +0.000 OA
ATOM     25  C   UNL     1      10.667   0.697   0.000  0.00  0.00    +0.000 A 
ATOM     26  C   UNL     1       9.952   1.110   0.000  0.00  0.00    +0.000 A 
ATOM     27  C   UNL     1      11.381   1.110   0.000  0.00  0.00    +0.000 A 
ATOM     28  C   UNL     1       9.952   1.935   0.000  0.00  0.00    +0.000 A 
ATOM     29  C   UNL     1      11.381   1.935   0.000  0.00  0.00    +0.000 A 
ATOM     30  C   UNL     1      10.667   2.347   0.000  0.00  0.00    +0.000 A 
BRANCH  30  32
ATOM     31  O   UNL     1       9.952   3.585   0.000  0.00  0.00    +0.000 OA
ATOM     32  C   UNL     1      10.667   3.172   0.000  0.00  0.00    +0.000 C 
BRANCH  32  33
ATOM     33  C   UNL     1      11.381   3.585   0.000  0.00  0.00    +0.000 C 
ATOM     34  C   UNL     1      11.381   4.410   0.000  0.00  0.00    +0.000 C 
BRANCH  34  37
ATOM     35  O   UNL     1      14.239   4.410   0.000  0.00  0.00    +0.000 OA
ATOM     36  O   UNL     1      14.239   6.060   0.000  0.00  0.00    +0.000 OA
ATOM     37  C   UNL     1      12.096   4.822   0.000  0.00  0.00    +0.000 A 
ATOM     38  C   UNL     1      12.810   4.410   0.000  0.00  0.00    +0.000 A 
ATOM     39  C   UNL     1      12.096   5.647   0.000  0.00  0.00    +0.000 A 
ATOM     40  C   UNL     1      13.525   4.822   0.000  0.00  0.00    +0.000 A 
ATOM     41  C   UNL     1      12.810   6.060   0.000  0.00  0.00    +0.000 A 
ATOM     42  C   UNL     1      13.525   5.647   0.000  0.00  0.00    +0.000 A 
ENDBRANCH  34  37
ENDBRANCH  32  33
ENDBRANCH  30  32
ENDBRANCH  22  25
ENDBRANCH   8  22
BRANCH   7  43
ATOM     43  C   UNL     1       7.809  -0.128   0.000  0.00  0.00    +0.000 C 
BRANCH  43  44
ATOM     44  O   UNL     1       7.094  -0.540   0.000  0.00  0.00    +0.000 OA
BRANCH  44  46
ATOM     45  O   UNL     1       6.380   0.697   0.000  0.00  0.00    +0.000 OA
ATOM     46  C   UNL     1       6.380  -0.128   0.000  0.00  0.00    +0.000 C 
BRANCH  46  47
ATOM     47  C   UNL     1       5.665  -0.540   0.000  0.00  0.00    +0.000 C 
ATOM     48  C   UNL     1       4.951  -0.128   0.000  0.00  0.00    +0.000 C 
BRANCH  48  50
ATOM     49  O   UNL     1       2.093  -1.778   0.000  0.00  0.00    +0.000 OA
ATOM     50  C   UNL     1       4.237  -0.540   0.000  0.00  0.00    +0.000 A 
ATOM     51  C   UNL     1       4.237  -1.365   0.000  0.00  0.00    +0.000 A 
ATOM     52  C   UNL     1       3.522  -0.128   0.000  0.00  0.00    +0.000 A 
ATOM     53  C   UNL     1       3.522  -1.778   0.000  0.00  0.00    +0.000 A 
ATOM     54  C   UNL     1       2.808  -0.540   0.000  0.00  0.00    +0.000 A 
ATOM     55  C   UNL     1       2.808  -1.365   0.000  0.00  0.00    +0.000 A 
ENDBRANCH  48  50
ENDBRANCH  46  47
ENDBRANCH  44  46
ENDBRANCH  43  44
ENDBRANCH   7  43
TORSDOF 14
