REMARK  Name = 44257709
REMARK  7 active torsions:
REMARK  status: ('A' for Active; 'I' for Inactive)
REMARK    1  A    between atoms: O_1  and  C_16
REMARK    2  A    between atoms: O_1  and  C_21
REMARK    3  A    between atoms: O_9  and  C_27
REMARK    4  A    between atoms: O_9  and  C_37
REMARK    5  A    between atoms: C_18  and  C_26
REMARK    6  A    between atoms: C_20  and  C_27
REMARK    7  A    between atoms: C_35  and  C_38
REMARK                            x       y       z     vdW  Elec       q    Type
REMARK                         _______ _______ _______ _____ _____    ______ ____
ROOT
ATOM      1  O   UNL     1       5.665   0.383   0.000  0.00  0.00    +0.000 OA
ATOM      2  O   UNL     1       3.522  -0.854   0.000  0.00  0.00    +0.000 OA
ATOM      3  O   UNL     1       3.522   0.796   0.000  0.00  0.00    +0.000 OA
ATOM      4  C   UNL     1       4.951  -0.854   0.000  0.00  0.00    +0.000 C 
ATOM      5  C   UNL     1       4.236  -0.442   0.000  0.00  0.00    +0.000 C 
ATOM      6  C   UNL     1       5.665  -0.442   0.000  0.00  0.00    +0.000 C 
ATOM      7  C   UNL     1       4.236   0.383   0.000  0.00  0.00    +0.000 C 
ATOM      8  C   UNL     1       4.951   0.796   0.000  0.00  0.00    +0.000 C 
ENDROOT
BRANCH   6  13
ATOM      9  O   UNL     1       7.081   0.417   0.000  0.00  0.00    +0.000 OA
ATOM     10  O   UNL     1       5.665  -2.092   0.000  0.00  0.00    +0.000 OA
ATOM     11  O   UNL     1       8.523  -2.092   0.000  0.00  0.00    +0.000 OA
ATOM     12  O   UNL     1       9.269  -0.857   0.000  0.00  0.00    +0.000 OA
ATOM     13  C   UNL     1       6.380  -0.854   0.000  0.00  0.00    +0.000 A 
ATOM     14  C   UNL     1       7.094  -0.442   0.000  0.00  0.00    +0.000 A 
ATOM     15  C   UNL     1       6.380  -1.679   0.000  0.00  0.00    +0.000 A 
ATOM     16  C   UNL     1       7.809  -0.854   0.000  0.00  0.00    +0.000 A 
ATOM     17  C   UNL     1       7.094  -2.092   0.000  0.00  0.00    +0.000 A 
ATOM     18  C   UNL     1       7.809  -1.679   0.000  0.00  0.00    +0.000 A 
ATOM     19  C   UNL     1       8.559  -0.436   0.000  0.00  0.00    +0.000 A 
ATOM     20  C   UNL     1       7.822   0.853   0.000  0.00  0.00    +0.000 A 
ATOM     21  C   UNL     1       8.566   0.423   0.000  0.00  0.00    +0.000 A 
BRANCH  20  23
ATOM     22  O   UNL     1       7.809   4.153   0.000  0.00  0.00    +0.000 OA
ATOM     23  C   UNL     1       7.819   1.678   0.000  0.00  0.00    +0.000 A 
ATOM     24  C   UNL     1       8.532   2.093   0.000  0.00  0.00    +0.000 A 
ATOM     25  C   UNL     1       7.103   2.087   0.000  0.00  0.00    +0.000 A 
ATOM     26  C   UNL     1       8.528   2.918   0.000  0.00  0.00    +0.000 A 
ATOM     27  C   UNL     1       7.099   2.913   0.000  0.00  0.00    +0.000 A 
ATOM     28  C   UNL     1       7.812   3.328   0.000  0.00  0.00    +0.000 A 
ENDBRANCH  20  23
ENDBRANCH   6  13
BRANCH   4  29
ATOM     29  O   UNL     1       4.951  -1.679   0.000  0.00  0.00    +0.000 OA
BRANCH  29  34
ATOM     30  O   UNL     1       3.522  -1.679   0.000  0.00  0.00    +0.000 OA
ATOM     31  O   UNL     1       4.951  -3.329   0.000  0.00  0.00    +0.000 OA
ATOM     32  O   UNL     1       3.522  -4.154   0.000  0.00  0.00    +0.000 OA
ATOM     33  O   UNL     1       2.093  -3.329   0.000  0.00  0.00    +0.000 OA
ATOM     34  C   UNL     1       4.236  -2.092   0.000  0.00  0.00    +0.000 C 
ATOM     35  C   UNL     1       4.236  -2.917   0.000  0.00  0.00    +0.000 C 
ATOM     36  C   UNL     1       3.522  -3.329   0.000  0.00  0.00    +0.000 C 
ATOM     37  C   UNL     1       2.808  -2.917   0.000  0.00  0.00    +0.000 C 
ATOM     38  C   UNL     1       2.808  -2.092   0.000  0.00  0.00    +0.000 C 
ATOM     39  C   UNL     1       2.093  -1.679   0.000  0.00  0.00    +0.000 C 
ENDBRANCH  29  34
ENDBRANCH   4  29
BRANCH   8  40
ATOM     40  C   UNL     1       4.951   1.621   0.000  0.00  0.00    +0.000 C 
BRANCH  40  41
ATOM     41  O   UNL     1       4.236   2.033   0.000  0.00  0.00    +0.000 OA
BRANCH  41  43
ATOM     42  O   UNL     1       4.951   3.271   0.000  0.00  0.00    +0.000 OA
ATOM     43  C   UNL     1       4.236   2.858   0.000  0.00  0.00    +0.000 C 
ATOM     44  C   UNL     1       3.522   3.271   0.000  0.00  0.00    +0.000 C 
ENDBRANCH  41  43
ENDBRANCH  40  41
ENDBRANCH   8  40
TORSDOF 7
