REMARK  Name = 44257159
REMARK  6 active torsions:
REMARK  status: ('A' for Active; 'I' for Inactive)
REMARK    1  A    between atoms: O_1  and  C_18
REMARK    2  A    between atoms: O_1  and  C_23
REMARK    3  A    between atoms: O_3  and  C_22
REMARK    4  A    between atoms: O_3  and  C_26
REMARK    5  A    between atoms: C_28  and  C_33
REMARK    6  A    between atoms: C_29  and  C_34
REMARK                            x       y       z     vdW  Elec       q    Type
REMARK                         _______ _______ _______ _____ _____    ______ ____
ROOT
ATOM      1  O   UNL     1       6.380   0.177   0.000  0.00  0.00    +0.000 OA
ENDROOT
BRANCH   1   6
ATOM      2  O   UNL     1       7.094   2.239   0.000  0.00  0.00    +0.000 OA
ATOM      3  O   UNL     1       4.951   1.002   0.000  0.00  0.00    +0.000 OA
ATOM      4  O   UNL     1       4.205   2.237   0.000  0.00  0.00    +0.000 OA
ATOM      5  O   UNL     1       5.655   4.771   0.000  0.00  0.00    +0.000 OA
ATOM      6  C   UNL     1       6.380   1.002   0.000  0.00  0.00    +0.000 C 
ATOM      7  C   UNL     1       7.094   1.414   0.000  0.00  0.00    +0.000 C 
ATOM      8  C   UNL     1       5.665   1.414   0.000  0.00  0.00    +0.000 C 
ATOM      9  C   UNL     1       5.665   2.239   0.000  0.00  0.00    +0.000 A 
ATOM     10  C   UNL     1       6.380   2.652   0.000  0.00  0.00    +0.000 A 
ATOM     11  C   UNL     1       4.915   2.658   0.000  0.00  0.00    +0.000 A 
ATOM     12  C   UNL     1       6.393   3.511   0.000  0.00  0.00    +0.000 A 
ATOM     13  C   UNL     1       4.908   3.517   0.000  0.00  0.00    +0.000 A 
ATOM     14  C   UNL     1       5.652   3.946   0.000  0.00  0.00    +0.000 A 
BRANCH   7  18
ATOM     15  O   UNL     1       8.523  -1.061   0.000  0.00  0.00    +0.000 OA
ATOM     16  O   UNL     1       9.952   1.414   0.000  0.00  0.00    +0.000 OA
ATOM     17  O   UNL     1       9.952  -0.236   0.000  0.00  0.00    +0.000 OA
ATOM     18  C   UNL     1       7.809   1.002   0.000  0.00  0.00    +0.000 A 
ATOM     19  C   UNL     1       8.523   1.414   0.000  0.00  0.00    +0.000 A 
ATOM     20  C   UNL     1       7.809   0.177   0.000  0.00  0.00    +0.000 A 
ATOM     21  C   UNL     1       8.523  -0.236   0.000  0.00  0.00    +0.000 A 
ATOM     22  C   UNL     1       9.238   1.002   0.000  0.00  0.00    +0.000 A 
ATOM     23  C   UNL     1       9.238   0.177   0.000  0.00  0.00    +0.000 A 
ENDBRANCH   7  18
ENDBRANCH   1   6
BRANCH   1  31
ATOM     24  O   UNL     1       4.951   0.177   0.000  0.00  0.00    +0.000 OA
ATOM     25  O   UNL     1       4.951  -2.298   0.000  0.00  0.00    +0.000 OA
ATOM     26  O   UNL     1       6.380  -1.473   0.000  0.00  0.00    +0.000 OA
ATOM     27  C   UNL     1       4.236  -1.061   0.000  0.00  0.00    +0.000 C 
ATOM     28  C   UNL     1       4.951  -1.473   0.000  0.00  0.00    +0.000 C 
ATOM     29  C   UNL     1       4.236  -0.236   0.000  0.00  0.00    +0.000 C 
ATOM     30  C   UNL     1       5.665  -1.061   0.000  0.00  0.00    +0.000 C 
ATOM     31  C   UNL     1       5.665  -0.236   0.000  0.00  0.00    +0.000 C 
ATOM     32  C   UNL     1       3.522   0.177   0.000  0.00  0.00    +0.000 C 
BRANCH  27  33
ATOM     33  O   UNL     1       3.522  -1.473   0.000  0.00  0.00    +0.000 OA
BRANCH  33  38
ATOM     34  O   UNL     1       4.236  -2.711   0.000  0.00  0.00    +0.000 OA
ATOM     35  O   UNL     1       2.093  -2.298   0.000  0.00  0.00    +0.000 OA
ATOM     36  O   UNL     1       2.093  -3.948   0.000  0.00  0.00    +0.000 OA
ATOM     37  O   UNL     1       3.522  -4.773   0.000  0.00  0.00    +0.000 OA
ATOM     38  C   UNL     1       3.522  -2.298   0.000  0.00  0.00    +0.000 C 
ATOM     39  C   UNL     1       2.808  -2.711   0.000  0.00  0.00    +0.000 C 
ATOM     40  C   UNL     1       2.808  -3.536   0.000  0.00  0.00    +0.000 C 
ATOM     41  C   UNL     1       3.522  -3.948   0.000  0.00  0.00    +0.000 C 
ATOM     42  C   UNL     1       4.236  -3.536   0.000  0.00  0.00    +0.000 C 
BRANCH  42  44
ATOM     43  O   UNL     1       4.951  -4.773   0.000  0.00  0.00    +0.000 OA
ATOM     44  C   UNL     1       4.951  -3.948   0.000  0.00  0.00    +0.000 C 
ENDBRANCH  42  44
ENDBRANCH  33  38
ENDBRANCH  27  33
ENDBRANCH   1  31
TORSDOF 6
