REMARK  Name = 5320475
REMARK  2 active torsions:
REMARK  status: ('A' for Active; 'I' for Inactive)
REMARK    1  A    between atoms: O_2  and  C_12
REMARK    2  A    between atoms: C_11  and  C_14
REMARK                            x       y       z     vdW  Elec       q    Type
REMARK                         _______ _______ _______ _____ _____    ______ ____
ROOT
ATOM      1  O   UNL     1       5.006  -0.223   0.000  0.00  0.00    +0.000 OA
ATOM      2  O   UNL     1       3.564   2.280   0.000  0.00  0.00    +0.000 OA
ATOM      3  O   UNL     1       5.006   2.252   0.000  0.00  0.00    +0.000 OA
ATOM      4  O   UNL     1       2.094   1.447   0.000  0.00  0.00    +0.000 OA
ATOM      5  O   UNL     1       2.094  -0.243   0.000  0.00  0.00    +0.000 OA
ATOM      6  C   UNL     1       4.292   1.014   0.000  0.00  0.00    +0.000 A 
ATOM      7  C   UNL     1       4.292   0.189   0.000  0.00  0.00    +0.000 A 
ATOM      8  C   UNL     1       5.721   0.189   0.000  0.00  0.00    +0.000 A 
ATOM      9  C   UNL     1       5.721   1.014   0.000  0.00  0.00    +0.000 A 
ATOM     10  C   UNL     1       5.006   1.427   0.000  0.00  0.00    +0.000 A 
ATOM     11  C   UNL     1       3.554   1.456   0.000  0.00  0.00    +0.000 A 
ATOM     12  C   UNL     1       3.554  -0.252   0.000  0.00  0.00    +0.000 A 
ATOM     13  C   UNL     1       2.807   1.032   0.000  0.00  0.00    +0.000 A 
ATOM     14  C   UNL     1       2.807   0.172   0.000  0.00  0.00    +0.000 A 
ENDROOT
BRANCH   8  17
ATOM     15  O   UNL     1       7.150  -2.286   0.000  0.00  0.00    +0.000 OA
ATOM     16  O   UNL     1       8.579  -1.461   0.000  0.00  0.00    +0.000 OA
ATOM     17  C   UNL     1       6.435  -0.223   0.000  0.00  0.00    +0.000 A 
ATOM     18  C   UNL     1       6.435  -1.048   0.000  0.00  0.00    +0.000 A 
ATOM     19  C   UNL     1       7.150   0.189   0.000  0.00  0.00    +0.000 A 
ATOM     20  C   UNL     1       7.150  -1.461   0.000  0.00  0.00    +0.000 A 
ATOM     21  C   UNL     1       7.864  -0.223   0.000  0.00  0.00    +0.000 A 
ATOM     22  C   UNL     1       7.864  -1.048   0.000  0.00  0.00    +0.000 A 
ENDBRANCH   8  17
BRANCH   9  23
ATOM     23  O   UNL     1       6.435   1.427   0.000  0.00  0.00    +0.000 OA
ATOM     24  C   UNL     1       6.435   2.252   0.000  0.00  0.00    +0.000 C 
ENDBRANCH   9  23
TORSDOF 2
