REMARK  Name = 44259038
REMARK  13 active torsions:
REMARK  status: ('A' for Active; 'I' for Inactive)
REMARK    1  A    between atoms: O_2  and  C_28
REMARK    2  A    between atoms: O_2  and  C_31
REMARK    3  A    between atoms: O_5  and  C_26
REMARK    4  A    between atoms: O_5  and  C_41
REMARK    5  A    between atoms: O_7  and  C_27
REMARK    6  A    between atoms: O_7  and  C_40
REMARK    7  A    between atoms: O_13  and  C_36
REMARK    8  A    between atoms: O_13  and  C_42
REMARK    9  A    between atoms: C_23  and  C_31
REMARK   10  A    between atoms: C_34  and  C_39
REMARK   11  A    between atoms: C_41  and  C_50
REMARK   12  A    between atoms: C_48  and  C_51
REMARK   13  A    between atoms: C_52  and  C_55
REMARK                            x       y       z     vdW  Elec       q    Type
REMARK                         _______ _______ _______ _____ _____    ______ ____
ROOT
ATOM      1  O   UNL     1       7.094  -0.710   0.000  0.00  0.00    +0.000 OA
ATOM      2  O   UNL     1       5.665  -2.360   0.000  0.00  0.00    +0.000 OA
ATOM      3  O   UNL     1       7.094  -3.185   0.000  0.00  0.00    +0.000 OA
ATOM      4  C   UNL     1       6.380  -1.122   0.000  0.00  0.00    +0.000 C 
ATOM      5  C   UNL     1       6.380  -1.947   0.000  0.00  0.00    +0.000 C 
ATOM      6  C   UNL     1       7.094  -2.360   0.000  0.00  0.00    +0.000 C 
ATOM      7  C   UNL     1       7.809  -1.947   0.000  0.00  0.00    +0.000 C 
ATOM      8  C   UNL     1       7.809  -1.122   0.000  0.00  0.00    +0.000 C 
ENDROOT
BRANCH   7   9
ATOM      9  O   UNL     1       8.523  -2.360   0.000  0.00  0.00    +0.000 OA
BRANCH   9  11
ATOM     10  O   UNL     1       7.809  -3.597   0.000  0.00  0.00    +0.000 OA
ATOM     11  C   UNL     1       8.523  -3.185   0.000  0.00  0.00    +0.000 C 
BRANCH  11  12
ATOM     12  C   UNL     1       9.238  -3.597   0.000  0.00  0.00    +0.000 C 
ATOM     13  C   UNL     1       9.238  -4.422   0.000  0.00  0.00    +0.000 C 
BRANCH  13  16
ATOM     14  O   UNL     1      10.667  -6.897   0.000  0.00  0.00    +0.000 OA
ATOM     15  O   UNL     1      12.096  -6.072   0.000  0.00  0.00    +0.000 OA
ATOM     16  C   UNL     1       9.952  -4.835   0.000  0.00  0.00    +0.000 A 
ATOM     17  C   UNL     1       9.952  -5.660   0.000  0.00  0.00    +0.000 A 
ATOM     18  C   UNL     1      10.667  -4.422   0.000  0.00  0.00    +0.000 A 
ATOM     19  C   UNL     1      10.667  -6.072   0.000  0.00  0.00    +0.000 A 
ATOM     20  C   UNL     1      11.381  -4.835   0.000  0.00  0.00    +0.000 A 
ATOM     21  C   UNL     1      11.381  -5.660   0.000  0.00  0.00    +0.000 A 
ENDBRANCH  13  16
ENDBRANCH  11  12
ENDBRANCH   9  11
ENDBRANCH   7   9
BRANCH   8  22
ATOM     22  O   UNL     1       8.523  -0.710   0.000  0.00  0.00    +0.000 OA
BRANCH  22  26
ATOM     23  O   UNL     1       9.972   1.817   0.000  0.00  0.00    +0.000 OA
ATOM     24  O   UNL     1       7.082   1.830   0.000  0.00  0.00    +0.000 OA
ATOM     25  O   UNL     1       7.833   3.062   0.000  0.00  0.00    +0.000 OA
ATOM     26  C   UNL     1       8.523   0.115   0.000  0.00  0.00    +0.000 A 
ATOM     27  C   UNL     1       9.262   3.057   0.000  0.00  0.00    +0.000 A 
ATOM     28  C   UNL     1       9.266   0.548   0.000  0.00  0.00    +0.000 A 
ATOM     29  C   UNL     1       7.781   0.548   0.000  0.00  0.00    +0.000 A 
ATOM     30  C   UNL     1       8.543   1.822   0.000  0.00  0.00    +0.000 A 
ATOM     31  C   UNL     1       9.256   1.407   0.000  0.00  0.00    +0.000 A 
ATOM     32  C   UNL     1       8.546   2.647   0.000  0.00  0.00    +0.000 A 
ATOM     33  C   UNL     1       9.975   2.642   0.000  0.00  0.00    +0.000 A 
ATOM     34  C   UNL     1       7.791   1.407   0.000  0.00  0.00    +0.000 A 
BRANCH  33  36
ATOM     35  O   UNL     1      12.839   4.281   0.000  0.00  0.00    +0.000 OA
ATOM     36  C   UNL     1      10.691   3.051   0.000  0.00  0.00    +0.000 A 
ATOM     37  C   UNL     1      10.694   3.876   0.000  0.00  0.00    +0.000 A 
ATOM     38  C   UNL     1      11.404   2.636   0.000  0.00  0.00    +0.000 A 
ATOM     39  C   UNL     1      11.410   4.286   0.000  0.00  0.00    +0.000 A 
ATOM     40  C   UNL     1      12.120   3.046   0.000  0.00  0.00    +0.000 A 
ATOM     41  C   UNL     1      12.123   3.871   0.000  0.00  0.00    +0.000 A 
ENDBRANCH  33  36
BRANCH  27  42
ATOM     42  O   UNL     1       9.265   3.882   0.000  0.00  0.00    +0.000 OA
BRANCH  42  48
ATOM     43  O   UNL     1       7.798   3.965   0.000  0.00  0.00    +0.000 OA
ATOM     44  O   UNL     1       6.950   5.708   0.000  0.00  0.00    +0.000 OA
ATOM     45  O   UNL     1       9.085   5.668   0.000  0.00  0.00    +0.000 OA
ATOM     46  C   UNL     1       7.663   5.293   0.000  0.00  0.00    +0.000 C 
ATOM     47  C   UNL     1       8.470   5.118   0.000  0.00  0.00    +0.000 C 
ATOM     48  C   UNL     1       8.553   4.297   0.000  0.00  0.00    +0.000 C 
ATOM     49  C   UNL     1       7.248   4.580   0.000  0.00  0.00    +0.000 C 
BRANCH  46  51
ATOM     50  O   UNL     1       7.227   6.653   0.000  0.00  0.00    +0.000 OA
ATOM     51  C   UNL     1       7.838   6.099   0.000  0.00  0.00    +0.000 C 
ENDBRANCH  46  51
ENDBRANCH  42  48
ENDBRANCH  27  42
ENDBRANCH  22  26
ENDBRANCH   8  22
BRANCH   4  52
ATOM     52  C   UNL     1       5.665  -0.710   0.000  0.00  0.00    +0.000 C 
BRANCH  52  53
ATOM     53  O   UNL     1       4.951  -1.122   0.000  0.00  0.00    +0.000 OA
BRANCH  53  58
ATOM     54  O   UNL     1       3.522  -1.122   0.000  0.00  0.00    +0.000 OA
ATOM     55  O   UNL     1       4.951   0.528   0.000  0.00  0.00    +0.000 OA
ATOM     56  O   UNL     1       3.522   1.353   0.000  0.00  0.00    +0.000 OA
ATOM     57  O   UNL     1       2.093   0.528   0.000  0.00  0.00    +0.000 OA
ATOM     58  C   UNL     1       4.236  -0.710   0.000  0.00  0.00    +0.000 C 
ATOM     59  C   UNL     1       4.236   0.115   0.000  0.00  0.00    +0.000 C 
ATOM     60  C   UNL     1       3.522   0.528   0.000  0.00  0.00    +0.000 C 
ATOM     61  C   UNL     1       2.808   0.115   0.000  0.00  0.00    +0.000 C 
ATOM     62  C   UNL     1       2.808  -0.710   0.000  0.00  0.00    +0.000 C 
ATOM     63  C   UNL     1       2.093  -1.122   0.000  0.00  0.00    +0.000 C 
ENDBRANCH  53  58
ENDBRANCH  52  53
ENDBRANCH   4  52
TORSDOF 13
