REMARK  Name = 44257127
REMARK  7 active torsions:
REMARK  status: ('A' for Active; 'I' for Inactive)
REMARK    1  A    between atoms: O_1  and  C_17
REMARK    2  A    between atoms: O_1  and  C_20
REMARK    3  A    between atoms: O_4  and  C_22
REMARK    4  A    between atoms: O_4  and  C_27
REMARK    5  A    between atoms: O_13  and  C_38
REMARK    6  A    between atoms: C_25  and  C_30
REMARK    7  A    between atoms: C_28  and  C_32
REMARK                            x       y       z     vdW  Elec       q    Type
REMARK                         _______ _______ _______ _____ _____    ______ ____
ROOT
ATOM      1  O   UNL     1       7.094   2.681   0.000  0.00  0.00    +0.000 OA
ATOM      2  O   UNL     1       8.537   0.178   0.000  0.00  0.00    +0.000 OA
ATOM      3  O   UNL     1      10.007   2.701   0.000  0.00  0.00    +0.000 OA
ATOM      4  C   UNL     1       6.380   1.444   0.000  0.00  0.00    +0.000 C 
ATOM      5  C   UNL     1       6.380   2.269   0.000  0.00  0.00    +0.000 C 
ATOM      6  C   UNL     1       7.094   1.031   0.000  0.00  0.00    +0.000 C 
ATOM      7  C   UNL     1       7.809   1.444   0.000  0.00  0.00    +0.000 A 
ATOM      8  C   UNL     1       7.809   2.269   0.000  0.00  0.00    +0.000 A 
ATOM      9  C   UNL     1       8.546   1.003   0.000  0.00  0.00    +0.000 A 
ATOM     10  C   UNL     1       8.546   2.710   0.000  0.00  0.00    +0.000 A 
ATOM     11  C   UNL     1       9.294   1.427   0.000  0.00  0.00    +0.000 A 
ATOM     12  C   UNL     1       9.294   2.286   0.000  0.00  0.00    +0.000 A 
ENDROOT
BRANCH   5  15
ATOM     13  O   UNL     1       4.951   4.744   0.000  0.00  0.00    +0.000 OA
ATOM     14  O   UNL     1       3.522   3.919   0.000  0.00  0.00    +0.000 OA
ATOM     15  C   UNL     1       5.665   2.681   0.000  0.00  0.00    +0.000 A 
ATOM     16  C   UNL     1       5.665   3.506   0.000  0.00  0.00    +0.000 A 
ATOM     17  C   UNL     1       4.951   2.269   0.000  0.00  0.00    +0.000 A 
ATOM     18  C   UNL     1       4.951   3.919   0.000  0.00  0.00    +0.000 A 
ATOM     19  C   UNL     1       4.236   2.681   0.000  0.00  0.00    +0.000 A 
ATOM     20  C   UNL     1       4.236   3.506   0.000  0.00  0.00    +0.000 A 
ENDBRANCH   5  15
BRANCH  11  21
ATOM     21  O   UNL     1      10.007   1.011   0.000  0.00  0.00    +0.000 OA
ATOM     22  C   UNL     1      10.723   1.421   0.000  0.00  0.00    +0.000 C 
ENDBRANCH  11  21
BRANCH   4  23
ATOM     23  O   UNL     1       5.665   1.031   0.000  0.00  0.00    +0.000 OA
BRANCH  23  30
ATOM     24  O   UNL     1       6.380  -0.206   0.000  0.00  0.00    +0.000 OA
ATOM     25  O   UNL     1       4.236  -1.444   0.000  0.00  0.00    +0.000 OA
ATOM     26  O   UNL     1       4.236   0.206   0.000  0.00  0.00    +0.000 OA
ATOM     27  C   UNL     1       5.665  -1.444   0.000  0.00  0.00    +0.000 C 
ATOM     28  C   UNL     1       4.951  -1.031   0.000  0.00  0.00    +0.000 C 
ATOM     29  C   UNL     1       4.951  -0.206   0.000  0.00  0.00    +0.000 C 
ATOM     30  C   UNL     1       5.665   0.206   0.000  0.00  0.00    +0.000 C 
ATOM     31  C   UNL     1       6.380  -1.031   0.000  0.00  0.00    +0.000 C 
BRANCH  27  32
ATOM     32  O   UNL     1       5.665  -2.269   0.000  0.00  0.00    +0.000 OA
BRANCH  32  37
ATOM     33  O   UNL     1       4.236  -2.269   0.000  0.00  0.00    +0.000 OA
ATOM     34  O   UNL     1       5.665  -3.919   0.000  0.00  0.00    +0.000 OA
ATOM     35  O   UNL     1       4.236  -4.744   0.000  0.00  0.00    +0.000 OA
ATOM     36  O   UNL     1       2.808  -3.919   0.000  0.00  0.00    +0.000 OA
ATOM     37  C   UNL     1       4.951  -2.681   0.000  0.00  0.00    +0.000 C 
ATOM     38  C   UNL     1       4.951  -3.506   0.000  0.00  0.00    +0.000 C 
ATOM     39  C   UNL     1       4.236  -3.919   0.000  0.00  0.00    +0.000 C 
ATOM     40  C   UNL     1       3.522  -3.506   0.000  0.00  0.00    +0.000 C 
ATOM     41  C   UNL     1       3.522  -2.681   0.000  0.00  0.00    +0.000 C 
BRANCH  41  43
ATOM     42  O   UNL     1       2.093  -2.681   0.000  0.00  0.00    +0.000 OA
ATOM     43  C   UNL     1       2.808  -2.269   0.000  0.00  0.00    +0.000 C 
ENDBRANCH  41  43
ENDBRANCH  32  37
ENDBRANCH  27  32
ENDBRANCH  23  30
ENDBRANCH   4  23
TORSDOF 7
