REMARK  Name = 85228900
REMARK  10 active torsions:
REMARK  status: ('A' for Active; 'I' for Inactive)
REMARK    1  A    between atoms: O_3  and  C_23
REMARK    2  A    between atoms: O_3  and  C_34
REMARK    3  A    between atoms: O_4  and  C_24
REMARK    4  A    between atoms: O_4  and  C_35
REMARK    5  A    between atoms: O_14  and  C_42
REMARK    6  A    between atoms: C_21  and  C_30
REMARK    7  A    between atoms: C_22  and  C_32
REMARK    8  A    between atoms: C_25  and  C_31
REMARK    9  A    between atoms: C_33  and  C_38
REMARK   10  A    between atoms: C_38  and  C_43
REMARK                            x       y       z     vdW  Elec       q    Type
REMARK                         _______ _______ _______ _____ _____    ______ ____
ROOT
ATOM      1  O   UNL     1       7.397   0.762   0.000  0.00  0.00    +0.000 OA
ATOM      2  C   UNL     1       6.651   0.336   0.000  0.00  0.00    +0.000 C 
ATOM      3  C   UNL     1       6.655  -0.524   0.000  0.00  0.00    +0.000 C 
ATOM      4  C   UNL     1       7.404  -0.945   0.000  0.00  0.00    +0.000 C 
ATOM      5  C   UNL     1       8.139  -0.501   0.000  0.00  0.00    +0.000 A 
ATOM      6  C   UNL     1       8.136   0.324   0.000  0.00  0.00    +0.000 A 
ATOM      7  C   UNL     1       8.849   0.740   0.000  0.00  0.00    +0.000 A 
ATOM      8  C   UNL     1       9.565   0.330   0.000  0.00  0.00    +0.000 A 
ATOM      9  C   UNL     1       8.856  -0.910   0.000  0.00  0.00    +0.000 A 
ATOM     10  C   UNL     1       9.568  -0.495   0.000  0.00  0.00    +0.000 A 
ENDROOT
BRANCH   2  11
ATOM     11  C   UNL     1       5.937   0.748   0.000  0.00  0.00    +0.000 A 
ATOM     12  C   UNL     1       5.222   0.336   0.000  0.00  0.00    +0.000 A 
ATOM     13  C   UNL     1       5.937   1.573   0.000  0.00  0.00    +0.000 A 
ATOM     14  C   UNL     1       4.508   0.748   0.000  0.00  0.00    +0.000 A 
ATOM     15  C   UNL     1       5.222   1.986   0.000  0.00  0.00    +0.000 A 
ATOM     16  C   UNL     1       4.508   1.573   0.000  0.00  0.00    +0.000 A 
BRANCH  16  17
ATOM     17  O   UNL     1       3.793   1.986   0.000  0.00  0.00    +0.000 OA
ATOM     18  C   UNL     1       3.793   2.811   0.000  0.00  0.00    +0.000 C 
ENDBRANCH  16  17
BRANCH  12  19
ATOM     19  O   UNL     1       5.222  -0.489   0.000  0.00  0.00    +0.000 OA
BRANCH  19  28
ATOM     20  O   UNL     1       3.793  -0.489   0.000  0.00  0.00    +0.000 OA
ATOM     21  O   UNL     1       3.793  -2.964   0.000  0.00  0.00    +0.000 OA
ATOM     22  O   UNL     1       2.364  -2.139   0.000  0.00  0.00    +0.000 OA
ATOM     23  O   UNL     1       5.222  -2.139   0.000  0.00  0.00    +0.000 OA
ATOM     24  C   UNL     1       3.793  -2.139   0.000  0.00  0.00    +0.000 C 
ATOM     25  C   UNL     1       3.079  -1.727   0.000  0.00  0.00    +0.000 C 
ATOM     26  C   UNL     1       4.508  -1.727   0.000  0.00  0.00    +0.000 C 
ATOM     27  C   UNL     1       3.079  -0.902   0.000  0.00  0.00    +0.000 C 
ATOM     28  C   UNL     1       4.508  -0.902   0.000  0.00  0.00    +0.000 C 
BRANCH  27  30
ATOM     29  O   UNL     1       1.650  -0.902   0.000  0.00  0.00    +0.000 OA
ATOM     30  C   UNL     1       2.364  -0.489   0.000  0.00  0.00    +0.000 C 
ENDBRANCH  27  30
ENDBRANCH  19  28
ENDBRANCH  12  19
ENDBRANCH   2  11
BRANCH   8  31
ATOM     31  O   UNL     1      10.278   0.745   0.000  0.00  0.00    +0.000 OA
BRANCH  31  40
ATOM     32  O   UNL     1      10.997  -0.490   0.000  0.00  0.00    +0.000 OA
ATOM     33  O   UNL     1      13.136   0.756   0.000  0.00  0.00    +0.000 OA
ATOM     34  O   UNL     1      13.142  -0.894   0.000  0.00  0.00    +0.000 OA
ATOM     35  O   UNL     1      11.704   1.576   0.000  0.00  0.00    +0.000 OA
ATOM     36  C   UNL     1      12.423   0.341   0.000  0.00  0.00    +0.000 C 
ATOM     37  C   UNL     1      12.426  -0.484   0.000  0.00  0.00    +0.000 C 
ATOM     38  C   UNL     1      11.707   0.751   0.000  0.00  0.00    +0.000 C 
ATOM     39  C   UNL     1      11.713  -0.899   0.000  0.00  0.00    +0.000 C 
ATOM     40  C   UNL     1      10.994   0.335   0.000  0.00  0.00    +0.000 C 
BRANCH  39  42
ATOM     41  O   UNL     1      12.433  -2.134   0.000  0.00  0.00    +0.000 OA
ATOM     42  C   UNL     1      11.717  -1.724   0.000  0.00  0.00    +0.000 C 
ENDBRANCH  39  42
ENDBRANCH  31  40
ENDBRANCH   8  31
BRANCH   7  43
ATOM     43  C   UNL     1       8.846   1.565   0.000  0.00  0.00    +0.000 C 
BRANCH  43  44
ATOM     44  C   UNL     1       9.559   1.980   0.000  0.00  0.00    +0.000 C 
ATOM     45  C   UNL     1       9.556   2.805   0.000  0.00  0.00    +0.000 C 
ATOM     46  C   UNL     1      10.269   3.220   0.000  0.00  0.00    +0.000 C 
ATOM     47  C   UNL     1       8.840   3.215   0.000  0.00  0.00    +0.000 C 
ENDBRANCH  43  44
ENDBRANCH   7  43
TORSDOF 10
