REMARK  Name = 44259550
REMARK  7 active torsions:
REMARK  status: ('A' for Active; 'I' for Inactive)
REMARK    1  A    between atoms: O_2  and  C_17
REMARK    2  A    between atoms: O_2  and  C_19
REMARK    3  A    between atoms: O_6  and  C_18
REMARK    4  A    between atoms: O_6  and  C_24
REMARK    5  A    between atoms: O_11  and  C_32
REMARK    6  A    between atoms: C_15  and  C_18
REMARK    7  A    between atoms: C_20  and  C_25
REMARK                            x       y       z     vdW  Elec       q    Type
REMARK                         _______ _______ _______ _____ _____    ______ ____
ROOT
ATOM      1  O   UNL     1       7.366   0.923   0.000  0.00  0.00    +0.000 OA
ATOM      2  O   UNL     1       5.222  -0.315   0.000  0.00  0.00    +0.000 OA
ATOM      3  O   UNL     1       4.476   0.920   0.000  0.00  0.00    +0.000 OA
ATOM      4  C   UNL     1       6.651  -0.315   0.000  0.00  0.00    +0.000 A 
ATOM      5  C   UNL     1       7.366   0.098   0.000  0.00  0.00    +0.000 A 
ATOM      6  C   UNL     1       5.937   0.098   0.000  0.00  0.00    +0.000 A 
ATOM      7  C   UNL     1       5.937   0.923   0.000  0.00  0.00    +0.000 A 
ATOM      8  C   UNL     1       6.651   1.335   0.000  0.00  0.00    +0.000 A 
ATOM      9  C   UNL     1       5.186   1.341   0.000  0.00  0.00    +0.000 A 
ATOM     10  C   UNL     1       6.665   2.195   0.000  0.00  0.00    +0.000 A 
ATOM     11  C   UNL     1       5.179   2.200   0.000  0.00  0.00    +0.000 A 
ATOM     12  C   UNL     1       5.924   2.630   0.000  0.00  0.00    +0.000 A 
ENDROOT
BRANCH   5  14
ATOM     13  O   UNL     1      10.224  -1.552   0.000  0.00  0.00    +0.000 OA
ATOM     14  C   UNL     1       8.080  -0.315   0.000  0.00  0.00    +0.000 A 
ATOM     15  C   UNL     1       8.080  -1.140   0.000  0.00  0.00    +0.000 A 
ATOM     16  C   UNL     1       8.795   0.098   0.000  0.00  0.00    +0.000 A 
ATOM     17  C   UNL     1       8.795  -1.552   0.000  0.00  0.00    +0.000 A 
ATOM     18  C   UNL     1       9.509  -0.315   0.000  0.00  0.00    +0.000 A 
ATOM     19  C   UNL     1       9.509  -1.140   0.000  0.00  0.00    +0.000 A 
ENDBRANCH   5  14
BRANCH  12  20
ATOM     20  O   UNL     1       5.927   3.455   0.000  0.00  0.00    +0.000 OA
ATOM     21  C   UNL     1       5.214   3.870   0.000  0.00  0.00    +0.000 C 
ENDBRANCH  12  20
BRANCH   4  22
ATOM     22  O   UNL     1       6.651  -1.140   0.000  0.00  0.00    +0.000 OA
BRANCH  22  31
ATOM     23  O   UNL     1       5.222  -1.140   0.000  0.00  0.00    +0.000 OA
ATOM     24  O   UNL     1       3.793  -2.790   0.000  0.00  0.00    +0.000 OA
ATOM     25  O   UNL     1       5.222  -3.615   0.000  0.00  0.00    +0.000 OA
ATOM     26  O   UNL     1       6.651  -2.790   0.000  0.00  0.00    +0.000 OA
ATOM     27  C   UNL     1       4.508  -2.377   0.000  0.00  0.00    +0.000 C 
ATOM     28  C   UNL     1       5.222  -2.790   0.000  0.00  0.00    +0.000 C 
ATOM     29  C   UNL     1       4.508  -1.552   0.000  0.00  0.00    +0.000 C 
ATOM     30  C   UNL     1       5.937  -2.377   0.000  0.00  0.00    +0.000 C 
ATOM     31  C   UNL     1       5.937  -1.552   0.000  0.00  0.00    +0.000 C 
BRANCH  29  32
ATOM     32  C   UNL     1       3.793  -1.140   0.000  0.00  0.00    +0.000 C 
BRANCH  32  33
ATOM     33  O   UNL     1       3.079  -1.552   0.000  0.00  0.00    +0.000 OA
BRANCH  33  35
ATOM     34  O   UNL     1       2.364  -0.315   0.000  0.00  0.00    +0.000 OA
ATOM     35  C   UNL     1       2.364  -1.140   0.000  0.00  0.00    +0.000 C 
ATOM     36  C   UNL     1       1.650  -1.552   0.000  0.00  0.00    +0.000 C 
ENDBRANCH  33  35
ENDBRANCH  32  33
ENDBRANCH  29  32
ENDBRANCH  22  31
ENDBRANCH   4  22
TORSDOF 7
