REMARK  Name = 131833695
REMARK  6 active torsions:
REMARK  status: ('A' for Active; 'I' for Inactive)
REMARK    1  A    between atoms: O_3  and  C_22
REMARK    2  A    between atoms: O_3  and  C_34
REMARK    3  A    between atoms: O_15  and  C_38
REMARK    4  A    between atoms: C_20  and  C_26
REMARK    5  A    between atoms: C_21  and  C_28
REMARK    6  A    between atoms: C_37  and  C_39
REMARK                            x       y       z     vdW  Elec       q    Type
REMARK                         _______ _______ _______ _____ _____    ______ ____
ROOT
ATOM      1  O   UNL     1       6.408   0.327   0.000  0.00  0.00    +0.000 OA
ATOM      2  O   UNL     1       4.975   2.842   0.000  0.00  0.00    +0.000 OA
ATOM      3  O   UNL     1       7.833   2.831   0.000  0.00  0.00    +0.000 OA
ATOM      4  O   UNL     1       4.225   1.610   0.000  0.00  0.00    +0.000 OA
ATOM      5  C   UNL     1       6.404   2.836   0.000  0.00  0.00    +0.000 A 
ATOM      6  C   UNL     1       5.688   2.427   0.000  0.00  0.00    +0.000 A 
ATOM      7  C   UNL     1       7.117   2.421   0.000  0.00  0.00    +0.000 A 
ATOM      8  C   UNL     1       5.685   1.602   0.000  0.00  0.00    +0.000 A 
ATOM      9  C   UNL     1       6.398   1.186   0.000  0.00  0.00    +0.000 A 
ATOM     10  C   UNL     1       7.114   1.596   0.000  0.00  0.00    +0.000 A 
ATOM     11  C   UNL     1       4.933   1.186   0.000  0.00  0.00    +0.000 A 
ATOM     12  C   UNL     1       5.665  -0.105   0.000  0.00  0.00    +0.000 A 
ATOM     13  C   UNL     1       4.923   0.327   0.000  0.00  0.00    +0.000 A 
ENDROOT
BRANCH   5  18
ATOM     14  O   UNL     1       5.695   4.077   0.000  0.00  0.00    +0.000 OA
ATOM     15  O   UNL     1       7.836   3.656   0.000  0.00  0.00    +0.000 OA
ATOM     16  O   UNL     1       7.843   5.306   0.000  0.00  0.00    +0.000 OA
ATOM     17  O   UNL     1       6.417   6.136   0.000  0.00  0.00    +0.000 OA
ATOM     18  C   UNL     1       6.407   3.661   0.000  0.00  0.00    +0.000 C 
ATOM     19  C   UNL     1       7.123   4.071   0.000  0.00  0.00    +0.000 C 
ATOM     20  C   UNL     1       7.127   4.896   0.000  0.00  0.00    +0.000 C 
ATOM     21  C   UNL     1       5.698   4.902   0.000  0.00  0.00    +0.000 C 
ATOM     22  C   UNL     1       6.414   5.311   0.000  0.00  0.00    +0.000 C 
ATOM     23  C   UNL     1       4.985   5.317   0.000  0.00  0.00    +0.000 C 
ENDBRANCH   5  18
BRANCH  12  26
ATOM     24  C   UNL     1       5.665  -2.580   0.000  0.00  0.00    +0.000 A 
ATOM     25  C   UNL     1       4.951  -2.168   0.000  0.00  0.00    +0.000 A 
ATOM     26  C   UNL     1       5.665  -0.930   0.000  0.00  0.00    +0.000 A 
ATOM     27  C   UNL     1       6.380  -2.168   0.000  0.00  0.00    +0.000 A 
ATOM     28  C   UNL     1       4.951  -1.343   0.000  0.00  0.00    +0.000 A 
ATOM     29  C   UNL     1       6.380  -1.343   0.000  0.00  0.00    +0.000 A 
BRANCH  25  30
ATOM     30  O   UNL     1       4.236  -2.580   0.000  0.00  0.00    +0.000 OA
ATOM     31  C   UNL     1       3.522  -2.168   0.000  0.00  0.00    +0.000 C 
ENDBRANCH  25  30
BRANCH  24  32
ATOM     32  O   UNL     1       5.665  -3.405   0.000  0.00  0.00    +0.000 OA
BRANCH  32  41
ATOM     33  O   UNL     1       4.236  -3.405   0.000  0.00  0.00    +0.000 OA
ATOM     34  O   UNL     1       4.236  -5.880   0.000  0.00  0.00    +0.000 OA
ATOM     35  O   UNL     1       2.808  -5.056   0.000  0.00  0.00    +0.000 OA
ATOM     36  O   UNL     1       5.665  -5.056   0.000  0.00  0.00    +0.000 OA
ATOM     37  C   UNL     1       4.236  -5.056   0.000  0.00  0.00    +0.000 C 
ATOM     38  C   UNL     1       3.522  -4.643   0.000  0.00  0.00    +0.000 C 
ATOM     39  C   UNL     1       4.951  -4.643   0.000  0.00  0.00    +0.000 C 
ATOM     40  C   UNL     1       3.522  -3.818   0.000  0.00  0.00    +0.000 C 
ATOM     41  C   UNL     1       4.951  -3.818   0.000  0.00  0.00    +0.000 C 
BRANCH  40  44
ATOM     42  O   UNL     1       2.093  -3.818   0.000  0.00  0.00    +0.000 OA
ATOM     43  O   UNL     1       2.808  -2.580   0.000  0.00  0.00    +0.000 OA
ATOM     44  C   UNL     1       2.808  -3.405   0.000  0.00  0.00    +0.000 C 
ENDBRANCH  40  44
ENDBRANCH  32  41
ENDBRANCH  24  32
ENDBRANCH  12  26
TORSDOF 6
