REMARK  Name = 15736236
REMARK  8 active torsions:
REMARK  status: ('A' for Active; 'I' for Inactive)
REMARK    1  A    between atoms: O_2  and  C_13
REMARK    2  A    between atoms: O_2  and  C_18
REMARK    3  A    between atoms: O_3  and  C_15
REMARK    4  A    between atoms: O_4  and  C_19
REMARK    5  A    between atoms: O_5  and  C_21
REMARK    6  A    between atoms: C_10  and  C_14
REMARK    7  A    between atoms: C_10  and  C_18
REMARK    8  A    between atoms: C_17  and  C_23
REMARK                            x       y       z     vdW  Elec       q    Type
REMARK                         _______ _______ _______ _____ _____    ______ ____
ROOT
ATOM      1  O   UNL     1       5.245   0.256   0.000  0.00  0.00    +0.000 OA
ATOM      2  O   UNL     1       3.793   2.760   0.000  0.00  0.00    +0.000 OA
ATOM      3  O   UNL     1       5.236   2.788   0.000  0.00  0.00    +0.000 OA
ATOM      4  C   UNL     1       4.508   0.697   0.000  0.00  0.00    +0.000 A 
ATOM      5  C   UNL     1       4.508   1.522   0.000  0.00  0.00    +0.000 A 
ATOM      6  C   UNL     1       3.793   0.285   0.000  0.00  0.00    +0.000 A 
ATOM      7  C   UNL     1       3.079   0.697   0.000  0.00  0.00    +0.000 A 
ATOM      8  C   UNL     1       3.793   1.935   0.000  0.00  0.00    +0.000 A 
ATOM      9  C   UNL     1       5.993   0.680   0.000  0.00  0.00    +0.000 A 
ATOM     10  C   UNL     1       3.079   1.522   0.000  0.00  0.00    +0.000 A 
ATOM     11  C   UNL     1       5.245   1.963   0.000  0.00  0.00    +0.000 A 
ATOM     12  C   UNL     1       5.993   1.539   0.000  0.00  0.00    +0.000 A 
ENDROOT
BRANCH   9  14
ATOM     13  O   UNL     1       8.844  -0.981   0.000  0.00  0.00    +0.000 OA
ATOM     14  C   UNL     1       6.706   0.265   0.000  0.00  0.00    +0.000 A 
ATOM     15  C   UNL     1       7.422   0.674   0.000  0.00  0.00    +0.000 A 
ATOM     16  C   UNL     1       6.703  -0.560   0.000  0.00  0.00    +0.000 A 
ATOM     17  C   UNL     1       8.135   0.259   0.000  0.00  0.00    +0.000 A 
ATOM     18  C   UNL     1       7.415  -0.976   0.000  0.00  0.00    +0.000 A 
ATOM     19  C   UNL     1       8.132  -0.566   0.000  0.00  0.00    +0.000 A 
ENDBRANCH   9  14
BRANCH   7  20
ATOM     20  O   UNL     1       2.364   0.285   0.000  0.00  0.00    +0.000 OA
ATOM     21  C   UNL     1       1.650   0.697   0.000  0.00  0.00    +0.000 C 
ENDBRANCH   7  20
BRANCH  10  22
ATOM     22  O   UNL     1       2.364   1.935   0.000  0.00  0.00    +0.000 OA
ATOM     23  C   UNL     1       2.364   2.760   0.000  0.00  0.00    +0.000 C 
ENDBRANCH  10  22
BRANCH  12  24
ATOM     24  O   UNL     1       6.706   1.955   0.000  0.00  0.00    +0.000 OA
ATOM     25  C   UNL     1       6.703   2.780   0.000  0.00  0.00    +0.000 C 
ENDBRANCH  12  24
BRANCH   6  26
ATOM     26  O   UNL     1       3.793  -0.540   0.000  0.00  0.00    +0.000 OA
BRANCH  26  28
ATOM     27  O   UNL     1       2.364  -0.540   0.000  0.00  0.00    +0.000 OA
ATOM     28  C   UNL     1       3.079  -0.953   0.000  0.00  0.00    +0.000 C 
BRANCH  28  29
ATOM     29  C   UNL     1       3.079  -1.778   0.000  0.00  0.00    +0.000 C 
ATOM     30  C   UNL     1       3.793  -2.190   0.000  0.00  0.00    +0.000 C 
BRANCH  29  31
ATOM     31  C   UNL     1       2.364  -2.190   0.000  0.00  0.00    +0.000 C 
ATOM     32  C   UNL     1       2.364  -3.015   0.000  0.00  0.00    +0.000 C 
ENDBRANCH  29  31
ENDBRANCH  28  29
ENDBRANCH  26  28
ENDBRANCH   6  26
TORSDOF 8
