REMARK  Name = 131836009
REMARK  11 active torsions:
REMARK  status: ('A' for Active; 'I' for Inactive)
REMARK    1  A    between atoms: O_2  and  C_17
REMARK    2  A    between atoms: O_2  and  C_20
REMARK    3  A    between atoms: C_18  and  C_19
REMARK    4  A    between atoms: C_21  and  C_26
REMARK    5  A    between atoms: C_26  and  C_31
REMARK    6  A    between atoms: C_27  and  C_30
REMARK    7  A    between atoms: C_29  and  C_32
REMARK    8  A    between atoms: C_30  and  C_33
REMARK    9  A    between atoms: C_35  and  C_36
REMARK   10  A    between atoms: C_36  and  C_39
REMARK   11  A    between atoms: C_39  and  C_46
REMARK                            x       y       z     vdW  Elec       q    Type
REMARK                         _______ _______ _______ _____ _____    ______ ____
ROOT
ATOM      1  O   UNL     1       7.114  -0.467   0.000  0.00  0.00    +0.000 OA
ATOM      2  O   UNL     1       4.225  -0.453   0.000  0.00  0.00    +0.000 OA
ATOM      3  O   UNL     1       4.975   0.779   0.000  0.00  0.00    +0.000 OA
ATOM      4  C   UNL     1       5.665  -2.168   0.000  0.00  0.00    +0.000 A 
ATOM      5  C   UNL     1       4.923  -1.736   0.000  0.00  0.00    +0.000 A 
ATOM      6  C   UNL     1       6.408  -1.736   0.000  0.00  0.00    +0.000 A 
ATOM      7  C   UNL     1       5.685  -0.461   0.000  0.00  0.00    +0.000 A 
ATOM      8  C   UNL     1       6.398  -0.876   0.000  0.00  0.00    +0.000 A 
ATOM      9  C   UNL     1       4.933  -0.876   0.000  0.00  0.00    +0.000 A 
ATOM     10  C   UNL     1       6.404   0.774   0.000  0.00  0.00    +0.000 A 
ATOM     11  C   UNL     1       5.688   0.364   0.000  0.00  0.00    +0.000 A 
ATOM     12  C   UNL     1       7.117   0.358   0.000  0.00  0.00    +0.000 A 
ENDROOT
BRANCH  12  16
ATOM     13  O   UNL     1       8.543  -0.472   0.000  0.00  0.00    +0.000 OA
ATOM     14  O   UNL     1       8.556   2.828   0.000  0.00  0.00    +0.000 OA
ATOM     15  O   UNL     1       9.981   1.998   0.000  0.00  0.00    +0.000 OA
ATOM     16  C   UNL     1       7.833   0.768   0.000  0.00  0.00    +0.000 A 
ATOM     17  C   UNL     1       8.546   0.353   0.000  0.00  0.00    +0.000 A 
ATOM     18  C   UNL     1       7.836   1.593   0.000  0.00  0.00    +0.000 A 
ATOM     19  C   UNL     1       8.552   2.003   0.000  0.00  0.00    +0.000 A 
ATOM     20  C   UNL     1       9.262   0.763   0.000  0.00  0.00    +0.000 A 
ATOM     21  C   UNL     1       9.265   1.588   0.000  0.00  0.00    +0.000 A 
ENDBRANCH  12  16
BRANCH   4  22
ATOM     22  O   UNL     1       5.665  -2.993   0.000  0.00  0.00    +0.000 OA
BRANCH  22  30
ATOM     23  O   UNL     1       4.236  -2.993   0.000  0.00  0.00    +0.000 OA
ATOM     24  O   UNL     1       4.236  -5.468   0.000  0.00  0.00    +0.000 OA
ATOM     25  O   UNL     1       5.665  -4.643   0.000  0.00  0.00    +0.000 OA
ATOM     26  O   UNL     1       2.808  -4.643   0.000  0.00  0.00    +0.000 OA
ATOM     27  C   UNL     1       4.236  -4.643   0.000  0.00  0.00    +0.000 C 
ATOM     28  C   UNL     1       4.951  -4.231   0.000  0.00  0.00    +0.000 C 
ATOM     29  C   UNL     1       3.522  -4.231   0.000  0.00  0.00    +0.000 C 
ATOM     30  C   UNL     1       4.951  -3.405   0.000  0.00  0.00    +0.000 C 
ATOM     31  C   UNL     1       3.522  -3.405   0.000  0.00  0.00    +0.000 C 
BRANCH  31  34
ATOM     32  O   UNL     1       2.093  -3.405   0.000  0.00  0.00    +0.000 OA
ATOM     33  O   UNL     1       2.808  -2.168   0.000  0.00  0.00    +0.000 OA
ATOM     34  C   UNL     1       2.808  -2.993   0.000  0.00  0.00    +0.000 C 
ENDBRANCH  31  34
ENDBRANCH  22  30
ENDBRANCH   4  22
BRANCH   5  35
ATOM     35  C   UNL     1       4.205  -2.142   0.000  0.00  0.00    +0.000 C 
BRANCH  35  36
ATOM     36  C   UNL     1       3.494  -1.724   0.000  0.00  0.00    +0.000 C 
ATOM     37  C   UNL     1       2.968  -1.088   0.000  0.00  0.00    +0.000 C 
ATOM     38  C   UNL     1       2.155  -1.225   0.000  0.00  0.00    +0.000 C 
ATOM     39  C   UNL     1       3.257  -0.315   0.000  0.00  0.00    +0.000 C 
ENDBRANCH  35  36
ENDBRANCH   5  35
BRANCH  10  40
ATOM     40  C   UNL     1       6.407   1.599   0.000  0.00  0.00    +0.000 C 
BRANCH  40  41
ATOM     41  C   UNL     1       5.695   2.014   0.000  0.00  0.00    +0.000 C 
ATOM     42  C   UNL     1       5.698   2.839   0.000  0.00  0.00    +0.000 C 
ATOM     43  C   UNL     1       4.985   3.254   0.000  0.00  0.00    +0.000 C 
BRANCH  42  44
ATOM     44  C   UNL     1       6.414   3.249   0.000  0.00  0.00    +0.000 C 
BRANCH  44  45
ATOM     45  C   UNL     1       6.417   4.074   0.000  0.00  0.00    +0.000 C 
BRANCH  45  46
ATOM     46  C   UNL     1       7.133   4.484   0.000  0.00  0.00    +0.000 C 
ATOM     47  C   UNL     1       7.136   5.309   0.000  0.00  0.00    +0.000 C 
ATOM     48  C   UNL     1       7.852   5.718   0.000  0.00  0.00    +0.000 C 
ATOM     49  C   UNL     1       6.423   5.724   0.000  0.00  0.00    +0.000 C 
ENDBRANCH  45  46
ENDBRANCH  44  45
ENDBRANCH  42  44
ENDBRANCH  40  41
ENDBRANCH  10  40
TORSDOF 11
