REMARK  Name = 134159946
REMARK  8 active torsions:
REMARK  status: ('A' for Active; 'I' for Inactive)
REMARK    1  A    between atoms: S_1  and  O_15
REMARK    2  A    between atoms: O_3  and  C_26
REMARK    3  A    between atoms: O_3  and  C_30
REMARK    4  A    between atoms: O_6  and  C_27
REMARK    5  A    between atoms: O_6  and  C_33
REMARK    6  A    between atoms: O_15  and  C_50
REMARK    7  A    between atoms: C_21  and  C_30
REMARK    8  A    between atoms: C_35  and  C_40
REMARK                            x       y       z     vdW  Elec       q    Type
REMARK                         _______ _______ _______ _____ _____    ______ ____
ROOT
ATOM      1  O   UNL     1       4.951   2.681   0.000  0.00  0.00    +0.000 OA
ATOM      2  O   UNL     1       3.530   0.185   0.000  0.00  0.00    +0.000 OA
ATOM      3  O   UNL     1       2.038   2.701   0.000  0.00  0.00    +0.000 OA
ATOM      4  C   UNL     1       5.665   1.444   0.000  0.00  0.00    +0.000 A 
ATOM      5  C   UNL     1       4.951   1.031   0.000  0.00  0.00    +0.000 A 
ATOM      6  C   UNL     1       5.665   2.269   0.000  0.00  0.00    +0.000 A 
ATOM      7  C   UNL     1       4.236   1.444   0.000  0.00  0.00    +0.000 A 
ATOM      8  C   UNL     1       4.236   2.269   0.000  0.00  0.00    +0.000 A 
ATOM      9  C   UNL     1       4.952   0.213   0.000  0.00  0.00    +0.000 A 
ATOM     10  C   UNL     1       3.499   1.003   0.000  0.00  0.00    +0.000 A 
ATOM     11  C   UNL     1       4.249  -0.205   0.000  0.00  0.00    +0.000 A 
ATOM     12  C   UNL     1       3.499   2.710   0.000  0.00  0.00    +0.000 A 
ATOM     13  C   UNL     1       2.751   1.427   0.000  0.00  0.00    +0.000 A 
ATOM     14  C   UNL     1       2.751   2.286   0.000  0.00  0.00    +0.000 A 
ATOM     15  C   UNL     1       4.265  -1.030   0.000  0.00  0.00    +0.000 C 
ENDROOT
BRANCH   6  18
ATOM     16  O   UNL     1       7.094   4.744   0.000  0.00  0.00    +0.000 OA
ATOM     17  O   UNL     1       8.523   2.269   0.000  0.00  0.00    +0.000 OA
ATOM     18  C   UNL     1       6.380   2.681   0.000  0.00  0.00    +0.000 A 
ATOM     19  C   UNL     1       7.094   2.269   0.000  0.00  0.00    +0.000 A 
ATOM     20  C   UNL     1       6.380   3.506   0.000  0.00  0.00    +0.000 A 
ATOM     21  C   UNL     1       7.094   3.919   0.000  0.00  0.00    +0.000 A 
ATOM     22  C   UNL     1       7.809   2.681   0.000  0.00  0.00    +0.000 A 
ATOM     23  C   UNL     1       7.809   3.506   0.000  0.00  0.00    +0.000 A 
BRANCH  23  24
ATOM     24  O   UNL     1       8.523   3.919   0.000  0.00  0.00    +0.000 OA
BRANCH  24  25
ATOM     25  S   UNL     1       9.238   3.506   0.000  0.00  0.00    +0.000 S 
ATOM     26  O   UNL     1       9.952   3.094   0.000  0.00  0.00    +0.000 OA
ATOM     27  O   UNL     1       9.650   4.221   0.000  0.00  0.00    +0.000 OA
ATOM     28  O   UNL     1       8.825   2.792   0.000  0.00  0.00    +0.000 OA
ENDBRANCH  24  25
ENDBRANCH  23  24
ENDBRANCH   6  18
BRANCH   4  29
ATOM     29  O   UNL     1       6.380   1.031   0.000  0.00  0.00    +0.000 OA
BRANCH  29  38
ATOM     30  O   UNL     1       5.665  -0.206   0.000  0.00  0.00    +0.000 OA
ATOM     31  O   UNL     1       6.380  -2.269   0.000  0.00  0.00    +0.000 OA
ATOM     32  O   UNL     1       7.809  -1.444   0.000  0.00  0.00    +0.000 OA
ATOM     33  O   UNL     1       7.809   0.206   0.000  0.00  0.00    +0.000 OA
ATOM     34  C   UNL     1       5.665  -1.031   0.000  0.00  0.00    +0.000 C 
ATOM     35  C   UNL     1       6.380  -1.444   0.000  0.00  0.00    +0.000 C 
ATOM     36  C   UNL     1       7.094  -1.031   0.000  0.00  0.00    +0.000 C 
ATOM     37  C   UNL     1       7.094  -0.206   0.000  0.00  0.00    +0.000 C 
ATOM     38  C   UNL     1       6.380   0.206   0.000  0.00  0.00    +0.000 C 
BRANCH  34  39
ATOM     39  C   UNL     1       4.951  -1.444   0.000  0.00  0.00    +0.000 C 
BRANCH  39  40
ATOM     40  O   UNL     1       4.951  -2.269   0.000  0.00  0.00    +0.000 OA
BRANCH  40  46
ATOM     41  O   UNL     1       3.522  -2.269   0.000  0.00  0.00    +0.000 OA
ATOM     42  O   UNL     1       4.951  -3.919   0.000  0.00  0.00    +0.000 OA
ATOM     43  O   UNL     1       3.522  -4.744   0.000  0.00  0.00    +0.000 OA
ATOM     44  O   UNL     1       2.093  -3.919   0.000  0.00  0.00    +0.000 OA
ATOM     45  C   UNL     1       4.236  -3.506   0.000  0.00  0.00    +0.000 C 
ATOM     46  C   UNL     1       4.236  -2.681   0.000  0.00  0.00    +0.000 C 
ATOM     47  C   UNL     1       3.522  -3.919   0.000  0.00  0.00    +0.000 C 
ATOM     48  C   UNL     1       2.808  -3.506   0.000  0.00  0.00    +0.000 C 
ATOM     49  C   UNL     1       2.808  -2.681   0.000  0.00  0.00    +0.000 C 
ATOM     50  C   UNL     1       2.093  -2.269   0.000  0.00  0.00    +0.000 C 
ENDBRANCH  40  46
ENDBRANCH  39  40
ENDBRANCH  34  39
ENDBRANCH  29  38
ENDBRANCH   4  29
TORSDOF 8
