REMARK  Name = 44257788
REMARK  3 active torsions:
REMARK  status: ('A' for Active; 'I' for Inactive)
REMARK    1  A    between atoms: O_2  and  C_14
REMARK    2  A    between atoms: O_2  and  C_16
REMARK    3  A    between atoms: C_20  and  C_23
REMARK                            x       y       z     vdW  Elec       q    Type
REMARK                         _______ _______ _______ _____ _____    ______ ____
ROOT
ATOM      1  C   UNL     1       4.951  -1.178   0.000  0.00  0.00    +0.000 A 
ATOM      2  C   UNL     1       4.236  -0.765   0.000  0.00  0.00    +0.000 A 
ATOM      3  C   UNL     1       5.665  -0.765   0.000  0.00  0.00    +0.000 A 
ATOM      4  C   UNL     1       4.236   0.060   0.000  0.00  0.00    +0.000 A 
ATOM      5  C   UNL     1       4.951   0.472   0.000  0.00  0.00    +0.000 A 
ATOM      6  C   UNL     1       5.665   0.060   0.000  0.00  0.00    +0.000 A 
ATOM      7  C   UNL     1       3.522  -1.178   0.000  0.00  0.00    +0.000 C 
ENDROOT
BRANCH   5  12
ATOM      8  O   UNL     1       5.665   1.710   0.000  0.00  0.00    +0.000 OA
ATOM      9  O   UNL     1       3.522   2.947   0.000  0.00  0.00    +0.000 OA
ATOM     10  O   UNL     1       4.218   4.211   0.000  0.00  0.00    +0.000 OA
ATOM     11  O   UNL     1       7.139   4.222   0.000  0.00  0.00    +0.000 OA
ATOM     12  C   UNL     1       4.951   1.297   0.000  0.00  0.00    +0.000 A 
ATOM     13  C   UNL     1       4.236   1.710   0.000  0.00  0.00    +0.000 A 
ATOM     14  C   UNL     1       4.951   2.947   0.000  0.00  0.00    +0.000 A 
ATOM     15  C   UNL     1       5.665   2.535   0.000  0.00  0.00    +0.000 A 
ATOM     16  C   UNL     1       4.236   2.535   0.000  0.00  0.00    +0.000 A 
ATOM     17  C   UNL     1       4.938   3.807   0.000  0.00  0.00    +0.000 A 
ATOM     18  C   UNL     1       6.416   2.953   0.000  0.00  0.00    +0.000 A 
ATOM     19  C   UNL     1       6.423   3.812   0.000  0.00  0.00    +0.000 A 
ATOM     20  C   UNL     1       5.678   4.242   0.000  0.00  0.00    +0.000 A 
ENDBRANCH   5  12
BRANCH   1  21
ATOM     21  O   UNL     1       4.951  -2.003   0.000  0.00  0.00    +0.000 OA
BRANCH  21  30
ATOM     22  O   UNL     1       3.522  -2.003   0.000  0.00  0.00    +0.000 OA
ATOM     23  O   UNL     1       3.522  -4.478   0.000  0.00  0.00    +0.000 OA
ATOM     24  O   UNL     1       2.093  -3.653   0.000  0.00  0.00    +0.000 OA
ATOM     25  O   UNL     1       4.951  -3.653   0.000  0.00  0.00    +0.000 OA
ATOM     26  C   UNL     1       3.522  -3.653   0.000  0.00  0.00    +0.000 C 
ATOM     27  C   UNL     1       2.808  -3.240   0.000  0.00  0.00    +0.000 C 
ATOM     28  C   UNL     1       4.236  -3.240   0.000  0.00  0.00    +0.000 C 
ATOM     29  C   UNL     1       2.808  -2.415   0.000  0.00  0.00    +0.000 C 
ATOM     30  C   UNL     1       4.236  -2.415   0.000  0.00  0.00    +0.000 C 
ATOM     31  C   UNL     1       2.093  -2.003   0.000  0.00  0.00    +0.000 C 
ENDBRANCH  21  30
ENDBRANCH   1  21
TORSDOF 3
