REMARK  Name = 42608083
REMARK  6 active torsions:
REMARK  status: ('A' for Active; 'I' for Inactive)
REMARK    1  A    between atoms: O_2  and  C_16
REMARK    2  A    between atoms: O_2  and  C_18
REMARK    3  A    between atoms: O_8  and  C_23
REMARK    4  A    between atoms: O_11  and  C_31
REMARK    5  A    between atoms: C_15  and  C_17
REMARK    6  A    between atoms: C_19  and  C_20
REMARK                            x       y       z     vdW  Elec       q    Type
REMARK                         _______ _______ _______ _____ _____    ______ ____
ROOT
ATOM      1  C   UNL     1       6.414  -0.933   0.000  0.00  0.00    +0.000 A 
ATOM      2  C   UNL     1       5.700   0.304   0.000  0.00  0.00    +0.000 A 
ATOM      3  C   UNL     1       5.700  -0.521   0.000  0.00  0.00    +0.000 A 
ATOM      4  C   UNL     1       7.129  -0.521   0.000  0.00  0.00    +0.000 A 
ATOM      5  C   UNL     1       6.414   0.717   0.000  0.00  0.00    +0.000 A 
ATOM      6  C   UNL     1       7.129   0.304   0.000  0.00  0.00    +0.000 A 
ENDROOT
BRANCH   2  10
ATOM      7  O   UNL     1       4.985   1.542   0.000  0.00  0.00    +0.000 OA
ATOM      8  O   UNL     1       2.842   0.304   0.000  0.00  0.00    +0.000 OA
ATOM      9  O   UNL     1       2.096   1.539   0.000  0.00  0.00    +0.000 OA
ATOM     10  C   UNL     1       4.985   0.717   0.000  0.00  0.00    +0.000 C 
ATOM     11  C   UNL     1       4.271   0.304   0.000  0.00  0.00    +0.000 C 
ATOM     12  C   UNL     1       3.556   0.717   0.000  0.00  0.00    +0.000 C 
ATOM     13  C   UNL     1       3.556   1.542   0.000  0.00  0.00    +0.000 A 
ATOM     14  C   UNL     1       4.271   1.954   0.000  0.00  0.00    +0.000 A 
ATOM     15  C   UNL     1       2.806   1.960   0.000  0.00  0.00    +0.000 A 
ATOM     16  C   UNL     1       4.284   2.813   0.000  0.00  0.00    +0.000 A 
ATOM     17  C   UNL     1       3.543   3.249   0.000  0.00  0.00    +0.000 A 
ATOM     18  C   UNL     1       2.799   2.819   0.000  0.00  0.00    +0.000 A 
BRANCH  17  19
ATOM     19  O   UNL     1       3.546   4.074   0.000  0.00  0.00    +0.000 OA
ATOM     20  C   UNL     1       2.833   4.489   0.000  0.00  0.00    +0.000 C 
ENDBRANCH  17  19
ENDBRANCH   2  10
BRANCH   4  21
ATOM     21  O   UNL     1       7.843  -0.933   0.000  0.00  0.00    +0.000 OA
ATOM     22  C   UNL     1       8.558  -0.521   0.000  0.00  0.00    +0.000 C 
ENDBRANCH   4  21
BRANCH   1  23
ATOM     23  O   UNL     1       6.414  -1.758   0.000  0.00  0.00    +0.000 OA
BRANCH  23  32
ATOM     24  O   UNL     1       4.985  -1.758   0.000  0.00  0.00    +0.000 OA
ATOM     25  O   UNL     1       4.985  -4.233   0.000  0.00  0.00    +0.000 OA
ATOM     26  O   UNL     1       3.556  -3.408   0.000  0.00  0.00    +0.000 OA
ATOM     27  O   UNL     1       6.414  -3.408   0.000  0.00  0.00    +0.000 OA
ATOM     28  C   UNL     1       4.985  -3.408   0.000  0.00  0.00    +0.000 C 
ATOM     29  C   UNL     1       4.271  -2.996   0.000  0.00  0.00    +0.000 C 
ATOM     30  C   UNL     1       5.700  -2.996   0.000  0.00  0.00    +0.000 C 
ATOM     31  C   UNL     1       4.271  -2.171   0.000  0.00  0.00    +0.000 C 
ATOM     32  C   UNL     1       5.700  -2.171   0.000  0.00  0.00    +0.000 C 
BRANCH  31  34
ATOM     33  O   UNL     1       2.842  -2.171   0.000  0.00  0.00    +0.000 OA
ATOM     34  C   UNL     1       3.556  -1.758   0.000  0.00  0.00    +0.000 C 
ENDBRANCH  31  34
ENDBRANCH  23  32
ENDBRANCH   1  23
TORSDOF 6
