REMARK  Name = 131833077
REMARK  4 active torsions:
REMARK  status: ('A' for Active; 'I' for Inactive)
REMARK    1  A    between atoms: O_12  and  C_33
REMARK    2  A    between atoms: C_13  and  C_18
REMARK    3  A    between atoms: C_17  and  C_23
REMARK    4  A    between atoms: C_24  and  C_28
REMARK                            x       y       z     vdW  Elec       q    Type
REMARK                         _______ _______ _______ _____ _____    ______ ____
ROOT
ATOM      1  O   UNL     1       7.832  -0.967   0.000  0.00  0.00    +0.000 OA
ATOM      2  O   UNL     1       6.380   1.536   0.000  0.00  0.00    +0.000 OA
ATOM      3  O   UNL     1       9.292   0.731   0.000  0.00  0.00    +0.000 OA
ATOM      4  O   UNL     1       4.951  -0.939   0.000  0.00  0.00    +0.000 OA
ATOM      5  C   UNL     1       5.665   0.299   0.000  0.00  0.00    +0.000 A 
ATOM      6  C   UNL     1       7.094   0.299   0.000  0.00  0.00    +0.000 A 
ATOM      7  C   UNL     1       6.380   0.711   0.000  0.00  0.00    +0.000 A 
ATOM      8  C   UNL     1       7.832   0.740   0.000  0.00  0.00    +0.000 C 
ATOM      9  C   UNL     1       8.579   0.316   0.000  0.00  0.00    +0.000 C 
ATOM     10  C   UNL     1       8.579  -0.543   0.000  0.00  0.00    +0.000 C 
ATOM     11  C   UNL     1       7.094  -0.526   0.000  0.00  0.00    +0.000 A 
ATOM     12  C   UNL     1       5.665  -0.526   0.000  0.00  0.00    +0.000 A 
ATOM     13  C   UNL     1       6.380  -0.939   0.000  0.00  0.00    +0.000 A 
ENDROOT
BRANCH   5  18
ATOM     14  O   UNL     1       4.236   0.299   0.000  0.00  0.00    +0.000 OA
ATOM     15  O   UNL     1       5.665   1.949   0.000  0.00  0.00    +0.000 OA
ATOM     16  O   UNL     1       4.236   2.774   0.000  0.00  0.00    +0.000 OA
ATOM     17  O   UNL     1       2.808   1.949   0.000  0.00  0.00    +0.000 OA
ATOM     18  C   UNL     1       4.951   0.711   0.000  0.00  0.00    +0.000 C 
ATOM     19  C   UNL     1       4.951   1.536   0.000  0.00  0.00    +0.000 C 
ATOM     20  C   UNL     1       4.236   1.949   0.000  0.00  0.00    +0.000 C 
ATOM     21  C   UNL     1       3.522   1.536   0.000  0.00  0.00    +0.000 C 
ATOM     22  C   UNL     1       3.522   0.711   0.000  0.00  0.00    +0.000 C 
BRANCH  22  24
ATOM     23  O   UNL     1       2.093   0.711   0.000  0.00  0.00    +0.000 OA
ATOM     24  C   UNL     1       2.808   0.299   0.000  0.00  0.00    +0.000 C 
ENDBRANCH  22  24
ENDBRANCH   5  18
BRANCH  10  27
ATOM     25  O   UNL     1       8.573  -2.193   0.000  0.00  0.00    +0.000 OA
ATOM     26  O   UNL     1      11.437  -0.554   0.000  0.00  0.00    +0.000 OA
ATOM     27  C   UNL     1       9.292  -0.959   0.000  0.00  0.00    +0.000 A 
ATOM     28  C   UNL     1       9.289  -1.784   0.000  0.00  0.00    +0.000 A 
ATOM     29  C   UNL     1      10.008  -0.549   0.000  0.00  0.00    +0.000 A 
ATOM     30  C   UNL     1      10.721  -0.964   0.000  0.00  0.00    +0.000 A 
ATOM     31  C   UNL     1      10.002  -2.199   0.000  0.00  0.00    +0.000 A 
ATOM     32  C   UNL     1      10.718  -1.789   0.000  0.00  0.00    +0.000 A 
BRANCH  32  33
ATOM     33  O   UNL     1      11.431  -2.204   0.000  0.00  0.00    +0.000 OA
ATOM     34  C   UNL     1      11.428  -3.030   0.000  0.00  0.00    +0.000 C 
ENDBRANCH  32  33
ENDBRANCH  10  27
TORSDOF 4
