REMARK  Name = 44259758
REMARK  10 active torsions:
REMARK  status: ('A' for Active; 'I' for Inactive)
REMARK    1  A    between atoms: O_3  and  C_18
REMARK    2  A    between atoms: O_3  and  C_35
REMARK    3  A    between atoms: O_4  and  C_19
REMARK    4  A    between atoms: O_4  and  C_37
REMARK    5  A    between atoms: O_5  and  C_26
REMARK    6  A    between atoms: O_5  and  C_30
REMARK    7  A    between atoms: O_6  and  C_27
REMARK    8  A    between atoms: O_6  and  C_31
REMARK    9  A    between atoms: O_12  and  C_39
REMARK   10  A    between atoms: C_36  and  C_41
REMARK                            x       y       z     vdW  Elec       q    Type
REMARK                         _______ _______ _______ _____ _____    ______ ____
ROOT
ATOM      1  O   UNL     1       5.665  -0.231   0.000  0.00  0.00    +0.000 OA
ATOM      2  O   UNL     1       3.522  -1.468   0.000  0.00  0.00    +0.000 OA
ATOM      3  O   UNL     1       2.776  -0.233   0.000  0.00  0.00    +0.000 OA
ATOM      4  C   UNL     1       4.951  -1.468   0.000  0.00  0.00    +0.000 A 
ATOM      5  C   UNL     1       4.223   1.476   0.000  0.00  0.00    +0.000 A 
ATOM      6  C   UNL     1       4.236  -0.231   0.000  0.00  0.00    +0.000 A 
ATOM      7  C   UNL     1       4.236  -1.056   0.000  0.00  0.00    +0.000 A 
ATOM      8  C   UNL     1       4.951   0.182   0.000  0.00  0.00    +0.000 A 
ATOM      9  C   UNL     1       5.665  -1.056   0.000  0.00  0.00    +0.000 A 
ATOM     10  C   UNL     1       4.964   1.041   0.000  0.00  0.00    +0.000 A 
ATOM     11  C   UNL     1       3.479   1.047   0.000  0.00  0.00    +0.000 A 
ATOM     12  C   UNL     1       3.486   0.187   0.000  0.00  0.00    +0.000 A 
ENDROOT
BRANCH   9  14
ATOM     13  O   UNL     1       8.523  -2.706   0.000  0.00  0.00    +0.000 OA
ATOM     14  C   UNL     1       6.380  -1.468   0.000  0.00  0.00    +0.000 A 
ATOM     15  C   UNL     1       6.380  -2.293   0.000  0.00  0.00    +0.000 A 
ATOM     16  C   UNL     1       7.094  -1.056   0.000  0.00  0.00    +0.000 A 
ATOM     17  C   UNL     1       7.094  -2.706   0.000  0.00  0.00    +0.000 A 
ATOM     18  C   UNL     1       7.809  -1.468   0.000  0.00  0.00    +0.000 A 
ATOM     19  C   UNL     1       7.809  -2.293   0.000  0.00  0.00    +0.000 A 
ENDBRANCH   9  14
BRANCH  11  20
ATOM     20  O   UNL     1       2.763   1.456   0.000  0.00  0.00    +0.000 OA
ATOM     21  C   UNL     1       2.760   2.281   0.000  0.00  0.00    +0.000 C 
ENDBRANCH  11  20
BRANCH   4  22
ATOM     22  O   UNL     1       4.951  -2.293   0.000  0.00  0.00    +0.000 OA
BRANCH  22  30
ATOM     23  O   UNL     1       3.522  -2.293   0.000  0.00  0.00    +0.000 OA
ATOM     24  O   UNL     1       2.093  -3.943   0.000  0.00  0.00    +0.000 OA
ATOM     25  O   UNL     1       4.951  -3.943   0.000  0.00  0.00    +0.000 OA
ATOM     26  C   UNL     1       3.522  -3.943   0.000  0.00  0.00    +0.000 C 
ATOM     27  C   UNL     1       2.808  -3.531   0.000  0.00  0.00    +0.000 C 
ATOM     28  C   UNL     1       4.236  -3.531   0.000  0.00  0.00    +0.000 C 
ATOM     29  C   UNL     1       2.808  -2.706   0.000  0.00  0.00    +0.000 C 
ATOM     30  C   UNL     1       4.236  -2.706   0.000  0.00  0.00    +0.000 C 
ATOM     31  C   UNL     1       2.093  -2.293   0.000  0.00  0.00    +0.000 C 
BRANCH  26  32
ATOM     32  O   UNL     1       3.522  -4.768   0.000  0.00  0.00    +0.000 OA
BRANCH  32  34
ATOM     33  O   UNL     1       2.093  -4.768   0.000  0.00  0.00    +0.000 OA
ATOM     34  C   UNL     1       2.808  -5.181   0.000  0.00  0.00    +0.000 C 
ATOM     35  C   UNL     1       2.808  -6.006   0.000  0.00  0.00    +0.000 C 
ENDBRANCH  32  34
ENDBRANCH  26  32
ENDBRANCH  22  30
ENDBRANCH   4  22
BRANCH   5  36
ATOM     36  O   UNL     1       4.226   2.301   0.000  0.00  0.00    +0.000 OA
BRANCH  36  44
ATOM     37  O   UNL     1       5.655   2.296   0.000  0.00  0.00    +0.000 OA
ATOM     38  O   UNL     1       7.091   3.940   0.000  0.00  0.00    +0.000 OA
ATOM     39  O   UNL     1       4.233   3.951   0.000  0.00  0.00    +0.000 OA
ATOM     40  C   UNL     1       5.662   3.946   0.000  0.00  0.00    +0.000 C 
ATOM     41  C   UNL     1       6.375   3.531   0.000  0.00  0.00    +0.000 C 
ATOM     42  C   UNL     1       4.946   3.536   0.000  0.00  0.00    +0.000 C 
ATOM     43  C   UNL     1       6.371   2.706   0.000  0.00  0.00    +0.000 C 
ATOM     44  C   UNL     1       4.942   2.711   0.000  0.00  0.00    +0.000 C 
ATOM     45  C   UNL     1       7.084   2.290   0.000  0.00  0.00    +0.000 C 
BRANCH  40  46
ATOM     46  O   UNL     1       5.665   4.771   0.000  0.00  0.00    +0.000 OA
BRANCH  46  48
ATOM     47  O   UNL     1       7.094   4.765   0.000  0.00  0.00    +0.000 OA
ATOM     48  C   UNL     1       6.381   5.181   0.000  0.00  0.00    +0.000 C 
ATOM     49  C   UNL     1       6.384   6.006   0.000  0.00  0.00    +0.000 C 
ENDBRANCH  46  48
ENDBRANCH  40  46
ENDBRANCH  36  44
ENDBRANCH   5  36
TORSDOF 10
