REMARK  Name = 44258530
REMARK  6 active torsions:
REMARK  status: ('A' for Active; 'I' for Inactive)
REMARK    1  A    between atoms: O_2  and  C_17
REMARK    2  A    between atoms: O_2  and  C_19
REMARK    3  A    between atoms: O_6  and  C_20
REMARK    4  A    between atoms: O_8  and  C_23
REMARK    5  A    between atoms: O_11  and  C_33
REMARK    6  A    between atoms: C_22  and  C_25
REMARK                            x       y       z     vdW  Elec       q    Type
REMARK                         _______ _______ _______ _____ _____    ______ ____
ROOT
ATOM      1  C   UNL     1       6.418  -0.847   0.000  0.00  0.00    +0.000 A 
ATOM      2  C   UNL     1       7.133  -0.434   0.000  0.00  0.00    +0.000 A 
ATOM      3  C   UNL     1       5.704  -0.434   0.000  0.00  0.00    +0.000 A 
ATOM      4  C   UNL     1       5.704   0.391   0.000  0.00  0.00    +0.000 A 
ATOM      5  C   UNL     1       7.133   0.391   0.000  0.00  0.00    +0.000 A 
ATOM      6  C   UNL     1       6.418   0.803   0.000  0.00  0.00    +0.000 A 
ENDROOT
BRANCH   4  11
ATOM      7  O   UNL     1       4.986   1.662   0.000  0.00  0.00    +0.000 OA
ATOM      8  O   UNL     1       2.784   0.413   0.000  0.00  0.00    +0.000 OA
ATOM      9  O   UNL     1       2.092   1.679   0.000  0.00  0.00    +0.000 OA
ATOM     10  O   UNL     1       3.530   4.149   0.000  0.00  0.00    +0.000 OA
ATOM     11  C   UNL     1       4.989   0.803   0.000  0.00  0.00    +0.000 A 
ATOM     12  C   UNL     1       4.244   0.376   0.000  0.00  0.00    +0.000 A 
ATOM     13  C   UNL     1       3.521   1.674   0.000  0.00  0.00    +0.000 A 
ATOM     14  C   UNL     1       4.237   2.083   0.000  0.00  0.00    +0.000 A 
ATOM     15  C   UNL     1       3.504   0.815   0.000  0.00  0.00    +0.000 A 
ATOM     16  C   UNL     1       2.808   2.089   0.000  0.00  0.00    +0.000 A 
ATOM     17  C   UNL     1       4.240   2.909   0.000  0.00  0.00    +0.000 A 
ATOM     18  C   UNL     1       2.811   2.914   0.000  0.00  0.00    +0.000 A 
ATOM     19  C   UNL     1       3.527   3.324   0.000  0.00  0.00    +0.000 A 
BRANCH  18  20
ATOM     20  O   UNL     1       2.098   3.329   0.000  0.00  0.00    +0.000 OA
ATOM     21  C   UNL     1       2.102   4.154   0.000  0.00  0.00    +0.000 C 
ENDBRANCH  18  20
ENDBRANCH   4  11
BRANCH   2  22
ATOM     22  O   UNL     1       7.847  -0.847   0.000  0.00  0.00    +0.000 OA
ATOM     23  C   UNL     1       8.562  -0.434   0.000  0.00  0.00    +0.000 C 
ENDBRANCH   2  22
BRANCH   5  24
ATOM     24  O   UNL     1       7.847   0.803   0.000  0.00  0.00    +0.000 OA
ATOM     25  C   UNL     1       7.847   1.628   0.000  0.00  0.00    +0.000 C 
ENDBRANCH   5  24
BRANCH   1  26
ATOM     26  O   UNL     1       6.418  -1.672   0.000  0.00  0.00    +0.000 OA
BRANCH  26  35
ATOM     27  O   UNL     1       4.989  -1.672   0.000  0.00  0.00    +0.000 OA
ATOM     28  O   UNL     1       4.989  -4.147   0.000  0.00  0.00    +0.000 OA
ATOM     29  O   UNL     1       3.561  -3.322   0.000  0.00  0.00    +0.000 OA
ATOM     30  O   UNL     1       6.418  -3.322   0.000  0.00  0.00    +0.000 OA
ATOM     31  C   UNL     1       4.989  -3.322   0.000  0.00  0.00    +0.000 C 
ATOM     32  C   UNL     1       4.275  -2.909   0.000  0.00  0.00    +0.000 C 
ATOM     33  C   UNL     1       5.704  -2.909   0.000  0.00  0.00    +0.000 C 
ATOM     34  C   UNL     1       4.275  -2.084   0.000  0.00  0.00    +0.000 C 
ATOM     35  C   UNL     1       5.704  -2.084   0.000  0.00  0.00    +0.000 C 
ATOM     36  C   UNL     1       3.561  -1.672   0.000  0.00  0.00    +0.000 C 
ENDBRANCH  26  35
ENDBRANCH   1  26
TORSDOF 6
