REMARK  Name = 131836778
REMARK  7 active torsions:
REMARK  status: ('A' for Active; 'I' for Inactive)
REMARK    1  A    between atoms: O_2  and  C_20
REMARK    2  A    between atoms: O_2  and  C_22
REMARK    3  A    between atoms: O_7  and  C_27
REMARK    4  A    between atoms: O_7  and  C_34
REMARK    5  A    between atoms: C_21  and  C_28
REMARK    6  A    between atoms: C_23  and  C_31
REMARK    7  A    between atoms: C_29  and  C_37
REMARK                            x       y       z     vdW  Elec       q    Type
REMARK                         _______ _______ _______ _____ _____    ______ ____
ROOT
ATOM      1  O   UNL     1       6.935   1.710   0.000  0.00  0.00    +0.000 OA
ATOM      2  O   UNL     1       4.791   2.947   0.000  0.00  0.00    +0.000 OA
ATOM      3  O   UNL     1       5.488   4.211   0.000  0.00  0.00    +0.000 OA
ATOM      4  O   UNL     1       8.408   4.222   0.000  0.00  0.00    +0.000 OA
ATOM      5  C   UNL     1       5.506   1.710   0.000  0.00  0.00    +0.000 C 
ATOM      6  C   UNL     1       6.220   1.297   0.000  0.00  0.00    +0.000 C 
ATOM      7  C   UNL     1       5.506   2.535   0.000  0.00  0.00    +0.000 C 
ATOM      8  C   UNL     1       6.220   2.947   0.000  0.00  0.00    +0.000 A 
ATOM      9  C   UNL     1       6.935   2.535   0.000  0.00  0.00    +0.000 A 
ATOM     10  C   UNL     1       6.207   3.807   0.000  0.00  0.00    +0.000 A 
ATOM     11  C   UNL     1       7.686   2.953   0.000  0.00  0.00    +0.000 A 
ATOM     12  C   UNL     1       6.948   4.242   0.000  0.00  0.00    +0.000 A 
ATOM     13  C   UNL     1       7.692   3.812   0.000  0.00  0.00    +0.000 A 
ENDROOT
BRANCH   6  15
ATOM     14  O   UNL     1       4.791  -1.178   0.000  0.00  0.00    +0.000 OA
ATOM     15  C   UNL     1       6.220   0.472   0.000  0.00  0.00    +0.000 A 
ATOM     16  C   UNL     1       6.220  -1.178   0.000  0.00  0.00    +0.000 A 
ATOM     17  C   UNL     1       5.506   0.060   0.000  0.00  0.00    +0.000 A 
ATOM     18  C   UNL     1       6.935   0.060   0.000  0.00  0.00    +0.000 A 
ATOM     19  C   UNL     1       5.506  -0.765   0.000  0.00  0.00    +0.000 A 
ATOM     20  C   UNL     1       6.935  -0.765   0.000  0.00  0.00    +0.000 A 
BRANCH  16  21
ATOM     21  O   UNL     1       6.220  -2.003   0.000  0.00  0.00    +0.000 OA
BRANCH  21  29
ATOM     22  O   UNL     1       4.791  -2.003   0.000  0.00  0.00    +0.000 OA
ATOM     23  O   UNL     1       4.791  -4.478   0.000  0.00  0.00    +0.000 OA
ATOM     24  O   UNL     1       6.220  -3.653   0.000  0.00  0.00    +0.000 OA
ATOM     25  O   UNL     1       3.362  -3.653   0.000  0.00  0.00    +0.000 OA
ATOM     26  C   UNL     1       4.791  -3.653   0.000  0.00  0.00    +0.000 C 
ATOM     27  C   UNL     1       5.506  -3.240   0.000  0.00  0.00    +0.000 C 
ATOM     28  C   UNL     1       4.077  -3.240   0.000  0.00  0.00    +0.000 C 
ATOM     29  C   UNL     1       5.506  -2.415   0.000  0.00  0.00    +0.000 C 
ATOM     30  C   UNL     1       4.077  -2.415   0.000  0.00  0.00    +0.000 C 
BRANCH  30  33
ATOM     31  O   UNL     1       2.648  -2.415   0.000  0.00  0.00    +0.000 OA
ATOM     32  O   UNL     1       3.362  -1.178   0.000  0.00  0.00    +0.000 OA
ATOM     33  C   UNL     1       3.362  -2.003   0.000  0.00  0.00    +0.000 C 
ENDBRANCH  30  33
ENDBRANCH  21  29
ENDBRANCH  16  21
ENDBRANCH   6  15
BRANCH   5  34
ATOM     34  O   UNL     1       4.791   1.297   0.000  0.00  0.00    +0.000 OA
BRANCH  34  40
ATOM     35  O   UNL     1       3.991   2.530   0.000  0.00  0.00    +0.000 OA
ATOM     36  O   UNL     1       3.152   0.567   0.000  0.00  0.00    +0.000 OA
ATOM     37  O   UNL     1       1.951   1.901   0.000  0.00  0.00    +0.000 OA
ATOM     38  C   UNL     1       3.323   1.374   0.000  0.00  0.00    +0.000 C 
ATOM     39  C   UNL     1       2.771   1.987   0.000  0.00  0.00    +0.000 C 
ATOM     40  C   UNL     1       4.077   1.710   0.000  0.00  0.00    +0.000 C 
ATOM     41  C   UNL     1       3.184   2.702   0.000  0.00  0.00    +0.000 C 
BRANCH  41  43
ATOM     42  O   UNL     1       2.028   3.542   0.000  0.00  0.00    +0.000 OA
ATOM     43  C   UNL     1       2.848   3.455   0.000  0.00  0.00    +0.000 C 
ENDBRANCH  41  43
ENDBRANCH  34  40
ENDBRANCH   5  34
TORSDOF 7
