REMARK  Name = 101066655
REMARK  4 active torsions:
REMARK  status: ('A' for Active; 'I' for Inactive)
REMARK    1  A    between atoms: O_2  and  C_17
REMARK    2  A    between atoms: O_2  and  C_19
REMARK    3  A    between atoms: C_16  and  C_18
REMARK    4  A    between atoms: C_22  and  C_26
REMARK                            x       y       z     vdW  Elec       q    Type
REMARK                         _______ _______ _______ _____ _____    ______ ____
ROOT
ATOM      1  O   UNL     1       6.380   1.002   0.000  0.00  0.00    +0.000 OA
ATOM      2  O   UNL     1       3.508   0.984   0.000  0.00  0.00    +0.000 OA
ATOM      3  O   UNL     1       4.941   3.534   0.000  0.00  0.00    +0.000 OA
ATOM      4  C   UNL     1       5.665  -0.236   0.000  0.00  0.00    +0.000 A 
ATOM      5  C   UNL     1       4.951   0.177   0.000  0.00  0.00    +0.000 A 
ATOM      6  C   UNL     1       4.951   1.002   0.000  0.00  0.00    +0.000 A 
ATOM      7  C   UNL     1       6.380   0.177   0.000  0.00  0.00    +0.000 A 
ATOM      8  C   UNL     1       5.665   1.414   0.000  0.00  0.00    +0.000 A 
ATOM      9  C   UNL     1       4.200   1.420   0.000  0.00  0.00    +0.000 A 
ATOM     10  C   UNL     1       4.243  -0.233   0.000  0.00  0.00    +0.000 A 
ATOM     11  C   UNL     1       3.529   0.166   0.000  0.00  0.00    +0.000 A 
ATOM     12  C   UNL     1       5.679   2.273   0.000  0.00  0.00    +0.000 A 
ATOM     13  C   UNL     1       4.194   2.279   0.000  0.00  0.00    +0.000 A 
ATOM     14  C   UNL     1       4.938   2.709   0.000  0.00  0.00    +0.000 A 
ATOM     15  C   UNL     1       2.823  -0.260   0.000  0.00  0.00    +0.000 C 
ENDROOT
BRANCH   7  19
ATOM     16  O   UNL     1       7.809  -2.298   0.000  0.00  0.00    +0.000 OA
ATOM     17  O   UNL     1       9.238   0.177   0.000  0.00  0.00    +0.000 OA
ATOM     18  O   UNL     1       9.238  -1.473   0.000  0.00  0.00    +0.000 OA
ATOM     19  C   UNL     1       7.094  -0.236   0.000  0.00  0.00    +0.000 A 
ATOM     20  C   UNL     1       7.809   0.177   0.000  0.00  0.00    +0.000 A 
ATOM     21  C   UNL     1       7.094  -1.061   0.000  0.00  0.00    +0.000 A 
ATOM     22  C   UNL     1       7.809  -1.473   0.000  0.00  0.00    +0.000 A 
ATOM     23  C   UNL     1       8.523  -0.236   0.000  0.00  0.00    +0.000 A 
ATOM     24  C   UNL     1       8.523  -1.061   0.000  0.00  0.00    +0.000 A 
ENDBRANCH   7  19
BRANCH   4  25
ATOM     25  O   UNL     1       5.665  -1.061   0.000  0.00  0.00    +0.000 OA
BRANCH  25  34
ATOM     26  O   UNL     1       4.236  -1.061   0.000  0.00  0.00    +0.000 OA
ATOM     27  O   UNL     1       4.236  -3.536   0.000  0.00  0.00    +0.000 OA
ATOM     28  O   UNL     1       2.808  -2.711   0.000  0.00  0.00    +0.000 OA
ATOM     29  O   UNL     1       5.665  -2.711   0.000  0.00  0.00    +0.000 OA
ATOM     30  C   UNL     1       4.236  -2.711   0.000  0.00  0.00    +0.000 C 
ATOM     31  C   UNL     1       3.522  -2.298   0.000  0.00  0.00    +0.000 C 
ATOM     32  C   UNL     1       4.951  -2.298   0.000  0.00  0.00    +0.000 C 
ATOM     33  C   UNL     1       3.522  -1.473   0.000  0.00  0.00    +0.000 C 
ATOM     34  C   UNL     1       4.951  -1.473   0.000  0.00  0.00    +0.000 C 
BRANCH  33  36
ATOM     35  O   UNL     1       2.093  -1.473   0.000  0.00  0.00    +0.000 OA
ATOM     36  C   UNL     1       2.808  -1.061   0.000  0.00  0.00    +0.000 C 
ENDBRANCH  33  36
ENDBRANCH  25  34
ENDBRANCH   4  25
TORSDOF 4
