REMARK  Name = 44259471
REMARK  7 active torsions:
REMARK  status: ('A' for Active; 'I' for Inactive)
REMARK    1  A    between atoms: O_2  and  C_15
REMARK    2  A    between atoms: O_2  and  C_22
REMARK    3  A    between atoms: O_3  and  C_16
REMARK    4  A    between atoms: O_3  and  C_23
REMARK    5  A    between atoms: O_4  and  C_19
REMARK    6  A    between atoms: O_4  and  C_21
REMARK    7  A    between atoms: C_24  and  C_30
REMARK                            x       y       z     vdW  Elec       q    Type
REMARK                         _______ _______ _______ _____ _____    ______ ____
ROOT
ATOM      1  O   UNL     1       6.651   1.493   0.000  0.00  0.00    +0.000 OA
ATOM      2  O   UNL     1       4.508   0.255   0.000  0.00  0.00    +0.000 OA
ATOM      3  O   UNL     1       3.762   1.490   0.000  0.00  0.00    +0.000 OA
ATOM      4  O   UNL     1       5.212   4.025   0.000  0.00  0.00    +0.000 OA
ATOM      5  C   UNL     1       5.937   0.255   0.000  0.00  0.00    +0.000 A 
ATOM      6  C   UNL     1       6.651   0.668   0.000  0.00  0.00    +0.000 A 
ATOM      7  C   UNL     1       5.222   0.668   0.000  0.00  0.00    +0.000 A 
ATOM      8  C   UNL     1       5.222   1.493   0.000  0.00  0.00    +0.000 A 
ATOM      9  C   UNL     1       5.937   1.905   0.000  0.00  0.00    +0.000 A 
ATOM     10  C   UNL     1       4.472   1.911   0.000  0.00  0.00    +0.000 A 
ATOM     11  C   UNL     1       5.950   2.764   0.000  0.00  0.00    +0.000 A 
ATOM     12  C   UNL     1       4.465   2.770   0.000  0.00  0.00    +0.000 A 
ATOM     13  C   UNL     1       5.209   3.200   0.000  0.00  0.00    +0.000 A 
ENDROOT
BRANCH   6  17
ATOM     14  O   UNL     1       8.080  -1.807   0.000  0.00  0.00    +0.000 OA
ATOM     15  O   UNL     1       9.509   0.668   0.000  0.00  0.00    +0.000 OA
ATOM     16  O   UNL     1       9.509  -0.982   0.000  0.00  0.00    +0.000 OA
ATOM     17  C   UNL     1       7.366   0.255   0.000  0.00  0.00    +0.000 A 
ATOM     18  C   UNL     1       8.080   0.668   0.000  0.00  0.00    +0.000 A 
ATOM     19  C   UNL     1       7.366  -0.570   0.000  0.00  0.00    +0.000 A 
ATOM     20  C   UNL     1       8.080  -0.982   0.000  0.00  0.00    +0.000 A 
ATOM     21  C   UNL     1       8.795   0.255   0.000  0.00  0.00    +0.000 A 
ATOM     22  C   UNL     1       8.795  -0.570   0.000  0.00  0.00    +0.000 A 
ENDBRANCH   6  17
BRANCH   5  23
ATOM     23  O   UNL     1       5.937  -0.570   0.000  0.00  0.00    +0.000 OA
BRANCH  23  30
ATOM     24  O   UNL     1       4.508  -0.570   0.000  0.00  0.00    +0.000 OA
ATOM     25  O   UNL     1       5.937  -2.220   0.000  0.00  0.00    +0.000 OA
ATOM     26  C   UNL     1       4.508  -2.220   0.000  0.00  0.00    +0.000 C 
ATOM     27  C   UNL     1       3.793  -1.807   0.000  0.00  0.00    +0.000 C 
ATOM     28  C   UNL     1       5.222  -1.807   0.000  0.00  0.00    +0.000 C 
ATOM     29  C   UNL     1       3.793  -0.982   0.000  0.00  0.00    +0.000 C 
ATOM     30  C   UNL     1       5.222  -0.982   0.000  0.00  0.00    +0.000 C 
ATOM     31  C   UNL     1       3.079  -0.570   0.000  0.00  0.00    +0.000 C 
BRANCH  26  32
ATOM     32  O   UNL     1       4.508  -3.045   0.000  0.00  0.00    +0.000 OA
BRANCH  32  34
ATOM     33  O   UNL     1       3.079  -3.045   0.000  0.00  0.00    +0.000 OA
ATOM     34  C   UNL     1       3.793  -3.457   0.000  0.00  0.00    +0.000 C 
ATOM     35  C   UNL     1       3.793  -4.282   0.000  0.00  0.00    +0.000 C 
ENDBRANCH  32  34
ENDBRANCH  26  32
BRANCH  27  36
ATOM     36  O   UNL     1       3.079  -2.220   0.000  0.00  0.00    +0.000 OA
BRANCH  36  38
ATOM     37  O   UNL     1       2.364  -0.982   0.000  0.00  0.00    +0.000 OA
ATOM     38  C   UNL     1       2.364  -1.807   0.000  0.00  0.00    +0.000 C 
ATOM     39  C   UNL     1       1.650  -2.220   0.000  0.00  0.00    +0.000 C 
ENDBRANCH  36  38
ENDBRANCH  27  36
ENDBRANCH  23  30
ENDBRANCH   5  23
TORSDOF 7
