REMARK  Name = 44258383
REMARK  5 active torsions:
REMARK  status: ('A' for Active; 'I' for Inactive)
REMARK    1  A    between atoms: O_2  and  C_15
REMARK    2  A    between atoms: O_2  and  C_17
REMARK    3  A    between atoms: O_7  and  C_21
REMARK    4  A    between atoms: O_9  and  C_29
REMARK    5  A    between atoms: C_24  and  C_26
REMARK                            x       y       z     vdW  Elec       q    Type
REMARK                         _______ _______ _______ _____ _____    ______ ____
ROOT
ATOM      1  O   UNL     1       6.422   1.755   0.000  0.00  0.00    +0.000 OA
ATOM      2  O   UNL     1       6.394  -0.720   0.000  0.00  0.00    +0.000 OA
ATOM      3  C   UNL     1       4.951   0.093   0.000  0.00  0.00    +0.000 A 
ATOM      4  C   UNL     1       5.693   0.526   0.000  0.00  0.00    +0.000 A 
ATOM      5  C   UNL     1       4.208   0.526   0.000  0.00  0.00    +0.000 A 
ATOM      6  C   UNL     1       5.703   1.351   0.000  0.00  0.00    +0.000 A 
ATOM      7  C   UNL     1       4.218   1.385   0.000  0.00  0.00    +0.000 A 
ATOM      8  C   UNL     1       6.403   0.105   0.000  0.00  0.00    +0.000 A 
ATOM      9  C   UNL     1       4.971   1.800   0.000  0.00  0.00    +0.000 A 
ATOM     10  C   UNL     1       7.132   1.334   0.000  0.00  0.00    +0.000 A 
ATOM     11  C   UNL     1       7.122   0.509   0.000  0.00  0.00    +0.000 A 
ENDROOT
BRANCH  10  13
ATOM     12  O   UNL     1      10.009   2.951   0.000  0.00  0.00    +0.000 OA
ATOM     13  C   UNL     1       7.851   1.738   0.000  0.00  0.00    +0.000 A 
ATOM     14  C   UNL     1       8.561   1.318   0.000  0.00  0.00    +0.000 A 
ATOM     15  C   UNL     1       7.861   2.563   0.000  0.00  0.00    +0.000 A 
ATOM     16  C   UNL     1       9.280   1.722   0.000  0.00  0.00    +0.000 A 
ATOM     17  C   UNL     1       8.580   2.967   0.000  0.00  0.00    +0.000 A 
ATOM     18  C   UNL     1       9.289   2.547   0.000  0.00  0.00    +0.000 A 
BRANCH  16  19
ATOM     19  O   UNL     1       9.989   1.301   0.000  0.00  0.00    +0.000 OA
ATOM     20  C   UNL     1      10.709   1.705   0.000  0.00  0.00    +0.000 C 
ENDBRANCH  16  19
ENDBRANCH  10  13
BRANCH   7  21
ATOM     21  O   UNL     1       3.510   1.809   0.000  0.00  0.00    +0.000 OA
ATOM     22  C   UNL     1       3.523   2.633   0.000  0.00  0.00    +0.000 C 
ENDBRANCH   7  21
BRANCH   3  23
ATOM     23  O   UNL     1       4.951  -0.732   0.000  0.00  0.00    +0.000 OA
BRANCH  23  32
ATOM     24  O   UNL     1       3.522  -0.732   0.000  0.00  0.00    +0.000 OA
ATOM     25  O   UNL     1       3.522  -3.207   0.000  0.00  0.00    +0.000 OA
ATOM     26  O   UNL     1       2.093  -2.382   0.000  0.00  0.00    +0.000 OA
ATOM     27  O   UNL     1       4.951  -2.382   0.000  0.00  0.00    +0.000 OA
ATOM     28  C   UNL     1       3.522  -2.382   0.000  0.00  0.00    +0.000 C 
ATOM     29  C   UNL     1       2.808  -1.969   0.000  0.00  0.00    +0.000 C 
ATOM     30  C   UNL     1       4.236  -1.969   0.000  0.00  0.00    +0.000 C 
ATOM     31  C   UNL     1       2.808  -1.144   0.000  0.00  0.00    +0.000 C 
ATOM     32  C   UNL     1       4.236  -1.144   0.000  0.00  0.00    +0.000 C 
ATOM     33  C   UNL     1       2.093  -0.732   0.000  0.00  0.00    +0.000 C 
ENDBRANCH  23  32
ENDBRANCH   3  23
TORSDOF 5
