REMARK  Name = 131831436
REMARK  6 active torsions:
REMARK  status: ('A' for Active; 'I' for Inactive)
REMARK    1  A    between atoms: O_2  and  C_18
REMARK    2  A    between atoms: O_2  and  C_25
REMARK    3  A    between atoms: O_11  and  C_39
REMARK    4  A    between atoms: C_19  and  C_31
REMARK    5  A    between atoms: C_21  and  C_32
REMARK    6  A    between atoms: C_27  and  C_34
REMARK                            x       y       z     vdW  Elec       q    Type
REMARK                         _______ _______ _______ _____ _____    ______ ____
ROOT
ATOM      1  O   UNL     1       4.963   0.826   0.000  0.00  0.00    +0.000 OA
ATOM      2  O   UNL     1       7.880   0.849   0.000  0.00  0.00    +0.000 OA
ATOM      3  O   UNL     1       5.704   2.940   0.000  0.00  0.00    +0.000 OA
ATOM      4  O   UNL     1       9.340   0.840   0.000  0.00  0.00    +0.000 OA
ATOM      5  C   UNL     1       7.143  -0.417   0.000  0.00  0.00    +0.000 A 
ATOM      6  C   UNL     1       7.880  -0.858   0.000  0.00  0.00    +0.000 C 
ATOM      7  C   UNL     1       6.428   0.820   0.000  0.00  0.00    +0.000 A 
ATOM      8  C   UNL     1       6.441   1.679   0.000  0.00  0.00    +0.000 C 
ATOM      9  C   UNL     1       7.143   0.408   0.000  0.00  0.00    +0.000 A 
ATOM     10  C   UNL     1       6.428  -0.830   0.000  0.00  0.00    +0.000 A 
ATOM     11  C   UNL     1       5.700   2.115   0.000  0.00  0.00    +0.000 C 
ATOM     12  C   UNL     1       4.956   1.685   0.000  0.00  0.00    +0.000 C 
ATOM     13  C   UNL     1       5.714   0.408   0.000  0.00  0.00    +0.000 A 
ATOM     14  C   UNL     1       8.627  -0.434   0.000  0.00  0.00    +0.000 C 
ATOM     15  C   UNL     1       5.714  -0.417   0.000  0.00  0.00    +0.000 A 
ATOM     16  C   UNL     1       8.627   0.425   0.000  0.00  0.00    +0.000 C 
ENDROOT
BRANCH  12  19
ATOM     17  O   UNL     1       3.518   4.155   0.000  0.00  0.00    +0.000 OA
ATOM     18  O   UNL     1       2.092   3.324   0.000  0.00  0.00    +0.000 OA
ATOM     19  C   UNL     1       4.240   2.095   0.000  0.00  0.00    +0.000 A 
ATOM     20  C   UNL     1       4.237   2.920   0.000  0.00  0.00    +0.000 A 
ATOM     21  C   UNL     1       3.527   1.680   0.000  0.00  0.00    +0.000 A 
ATOM     22  C   UNL     1       3.521   3.330   0.000  0.00  0.00    +0.000 A 
ATOM     23  C   UNL     1       2.811   2.090   0.000  0.00  0.00    +0.000 A 
ATOM     24  C   UNL     1       2.808   2.914   0.000  0.00  0.00    +0.000 A 
ENDBRANCH  12  19
BRANCH   6  26
ATOM     25  O   UNL     1       7.842  -4.158   0.000  0.00  0.00    +0.000 OA
ATOM     26  C   UNL     1       7.870  -1.683   0.000  0.00  0.00    +0.000 A 
ATOM     27  C   UNL     1       8.580  -2.104   0.000  0.00  0.00    +0.000 A 
ATOM     28  C   UNL     1       7.151  -2.087   0.000  0.00  0.00    +0.000 A 
ATOM     29  C   UNL     1       8.571  -2.929   0.000  0.00  0.00    +0.000 A 
ATOM     30  C   UNL     1       7.142  -2.912   0.000  0.00  0.00    +0.000 A 
ATOM     31  C   UNL     1       7.851  -3.333   0.000  0.00  0.00    +0.000 A 
BRANCH  29  32
ATOM     32  O   UNL     1       9.280  -3.350   0.000  0.00  0.00    +0.000 OA
ATOM     33  C   UNL     1       9.271  -4.175   0.000  0.00  0.00    +0.000 C 
ENDBRANCH  29  32
ENDBRANCH   6  26
BRANCH  10  34
ATOM     34  O   UNL     1       6.428  -1.655   0.000  0.00  0.00    +0.000 OA
BRANCH  34  42
ATOM     35  O   UNL     1       4.999  -1.655   0.000  0.00  0.00    +0.000 OA
ATOM     36  O   UNL     1       4.999  -4.130   0.000  0.00  0.00    +0.000 OA
ATOM     37  O   UNL     1       6.428  -3.305   0.000  0.00  0.00    +0.000 OA
ATOM     38  O   UNL     1       3.570  -3.305   0.000  0.00  0.00    +0.000 OA
ATOM     39  C   UNL     1       4.999  -3.305   0.000  0.00  0.00    +0.000 C 
ATOM     40  C   UNL     1       5.714  -2.892   0.000  0.00  0.00    +0.000 C 
ATOM     41  C   UNL     1       4.285  -2.892   0.000  0.00  0.00    +0.000 C 
ATOM     42  C   UNL     1       5.714  -2.067   0.000  0.00  0.00    +0.000 C 
ATOM     43  C   UNL     1       4.285  -2.067   0.000  0.00  0.00    +0.000 C 
BRANCH  43  45
ATOM     44  O   UNL     1       2.856  -2.067   0.000  0.00  0.00    +0.000 OA
ATOM     45  C   UNL     1       3.570  -1.655   0.000  0.00  0.00    +0.000 C 
ENDBRANCH  43  45
ENDBRANCH  34  42
ENDBRANCH  10  34
TORSDOF 6
