REMARK  Name = 44258306
REMARK  4 active torsions:
REMARK  status: ('A' for Active; 'I' for Inactive)
REMARK    1  A    between atoms: O_7  and  C_21
REMARK    2  A    between atoms: O_9  and  C_31
REMARK    3  A    between atoms: C_12  and  C_15
REMARK    4  A    between atoms: C_23  and  C_25
REMARK                            x       y       z     vdW  Elec       q    Type
REMARK                         _______ _______ _______ _____ _____    ______ ____
ROOT
ATOM      1  O   UNL     1       4.974   0.305   0.000  0.00  0.00    +0.000 OA
ATOM      2  O   UNL     1       2.093   0.334   0.000  0.00  0.00    +0.000 OA
ATOM      3  O   UNL     1       4.964   2.838   0.000  0.00  0.00    +0.000 OA
ATOM      4  C   UNL     1       3.522   0.334   0.000  0.00  0.00    +0.000 A 
ATOM      5  C   UNL     1       4.236   0.747   0.000  0.00  0.00    +0.000 A 
ATOM      6  C   UNL     1       2.808   0.747   0.000  0.00  0.00    +0.000 A 
ATOM      7  C   UNL     1       4.236   1.572   0.000  0.00  0.00    +0.000 A 
ATOM      8  C   UNL     1       2.808   1.572   0.000  0.00  0.00    +0.000 A 
ATOM      9  C   UNL     1       3.522   1.984   0.000  0.00  0.00    +0.000 A 
ATOM     10  C   UNL     1       4.974   2.013   0.000  0.00  0.00    +0.000 A 
ATOM     11  C   UNL     1       5.721   0.730   0.000  0.00  0.00    +0.000 A 
ATOM     12  C   UNL     1       5.721   1.589   0.000  0.00  0.00    +0.000 A 
ENDROOT
BRANCH   4  19
ATOM     13  O   UNL     1       4.236  -0.903   0.000  0.00  0.00    +0.000 OA
ATOM     14  O   UNL     1       2.093  -0.491   0.000  0.00  0.00    +0.000 OA
ATOM     15  O   UNL     1       2.093  -2.141   0.000  0.00  0.00    +0.000 OA
ATOM     16  O   UNL     1       3.522  -2.966   0.000  0.00  0.00    +0.000 OA
ATOM     17  C   UNL     1       2.808  -0.903   0.000  0.00  0.00    +0.000 C 
ATOM     18  C   UNL     1       2.808  -1.728   0.000  0.00  0.00    +0.000 C 
ATOM     19  C   UNL     1       3.522  -0.491   0.000  0.00  0.00    +0.000 C 
ATOM     20  C   UNL     1       3.522  -2.141   0.000  0.00  0.00    +0.000 C 
ATOM     21  C   UNL     1       4.236  -1.728   0.000  0.00  0.00    +0.000 C 
ATOM     22  C   UNL     1       4.951  -2.141   0.000  0.00  0.00    +0.000 C 
ENDBRANCH   4  19
BRANCH  11  23
ATOM     23  C   UNL     1       6.434   0.314   0.000  0.00  0.00    +0.000 A 
ATOM     24  C   UNL     1       7.150   0.724   0.000  0.00  0.00    +0.000 A 
ATOM     25  C   UNL     1       6.431  -0.511   0.000  0.00  0.00    +0.000 A 
ATOM     26  C   UNL     1       7.863   0.309   0.000  0.00  0.00    +0.000 A 
ATOM     27  C   UNL     1       7.144  -0.926   0.000  0.00  0.00    +0.000 A 
ATOM     28  C   UNL     1       7.860  -0.516   0.000  0.00  0.00    +0.000 A 
BRANCH  28  29
ATOM     29  O   UNL     1       8.573  -0.932   0.000  0.00  0.00    +0.000 OA
ATOM     30  C   UNL     1       9.289  -0.522   0.000  0.00  0.00    +0.000 C 
ENDBRANCH  28  29
ENDBRANCH  11  23
BRANCH   9  31
ATOM     31  O   UNL     1       3.522   2.809   0.000  0.00  0.00    +0.000 OA
ATOM     32  C   UNL     1       2.808   3.222   0.000  0.00  0.00    +0.000 C 
ENDBRANCH   9  31
TORSDOF 4
