REMARK  Name = 131835684
REMARK  7 active torsions:
REMARK  status: ('A' for Active; 'I' for Inactive)
REMARK    1  A    between atoms: O_3  and  C_24
REMARK    2  A    between atoms: O_3  and  C_32
REMARK    3  A    between atoms: O_7  and  C_28
REMARK    4  A    between atoms: O_7  and  C_33
REMARK    5  A    between atoms: C_23  and  C_30
REMARK    6  A    between atoms: C_29  and  C_31
REMARK    7  A    between atoms: C_38  and  C_41
REMARK                            x       y       z     vdW  Elec       q    Type
REMARK                         _______ _______ _______ _____ _____    ______ ____
ROOT
ATOM      1  O   UNL     1       7.114   0.229   0.000  0.00  0.00    +0.000 OA
ATOM      2  O   UNL     1       4.205  -1.447   0.000  0.00  0.00    +0.000 OA
ATOM      3  O   UNL     1       4.225   0.242   0.000  0.00  0.00    +0.000 OA
ATOM      4  O   UNL     1       4.975   1.474   0.000  0.00  0.00    +0.000 OA
ATOM      5  C   UNL     1       5.665  -1.473   0.000  0.00  0.00    +0.000 A 
ATOM      6  C   UNL     1       6.404   1.469   0.000  0.00  0.00    +0.000 A 
ATOM      7  C   UNL     1       5.685   0.234   0.000  0.00  0.00    +0.000 A 
ATOM      8  C   UNL     1       6.398  -0.181   0.000  0.00  0.00    +0.000 A 
ATOM      9  C   UNL     1       6.408  -1.040   0.000  0.00  0.00    +0.000 A 
ATOM     10  C   UNL     1       5.688   1.059   0.000  0.00  0.00    +0.000 A 
ATOM     11  C   UNL     1       7.117   1.054   0.000  0.00  0.00    +0.000 A 
ATOM     12  C   UNL     1       4.923  -1.040   0.000  0.00  0.00    +0.000 A 
ATOM     13  C   UNL     1       4.933  -0.181   0.000  0.00  0.00    +0.000 A 
ENDROOT
BRANCH  11  16
ATOM     14  O   UNL     1       9.975   1.043   0.000  0.00  0.00    +0.000 OA
ATOM     15  O   UNL     1       9.981   2.693   0.000  0.00  0.00    +0.000 OA
ATOM     16  C   UNL     1       7.833   1.464   0.000  0.00  0.00    +0.000 A 
ATOM     17  C   UNL     1       8.546   1.048   0.000  0.00  0.00    +0.000 A 
ATOM     18  C   UNL     1       7.836   2.288   0.000  0.00  0.00    +0.000 A 
ATOM     19  C   UNL     1       9.262   1.458   0.000  0.00  0.00    +0.000 A 
ATOM     20  C   UNL     1       8.552   2.698   0.000  0.00  0.00    +0.000 A 
ATOM     21  C   UNL     1       9.265   2.283   0.000  0.00  0.00    +0.000 A 
ENDBRANCH  11  16
BRANCH   5  22
ATOM     22  O   UNL     1       5.665  -2.298   0.000  0.00  0.00    +0.000 OA
BRANCH  22  31
ATOM     23  O   UNL     1       4.236  -2.298   0.000  0.00  0.00    +0.000 OA
ATOM     24  O   UNL     1       4.236  -4.773   0.000  0.00  0.00    +0.000 OA
ATOM     25  O   UNL     1       2.808  -3.948   0.000  0.00  0.00    +0.000 OA
ATOM     26  O   UNL     1       5.665  -3.948   0.000  0.00  0.00    +0.000 OA
ATOM     27  C   UNL     1       4.236  -3.948   0.000  0.00  0.00    +0.000 C 
ATOM     28  C   UNL     1       3.522  -3.535   0.000  0.00  0.00    +0.000 C 
ATOM     29  C   UNL     1       4.951  -3.535   0.000  0.00  0.00    +0.000 C 
ATOM     30  C   UNL     1       3.522  -2.710   0.000  0.00  0.00    +0.000 C 
ATOM     31  C   UNL     1       4.951  -2.710   0.000  0.00  0.00    +0.000 C 
BRANCH  30  33
ATOM     32  O   UNL     1       2.093  -2.710   0.000  0.00  0.00    +0.000 OA
ATOM     33  C   UNL     1       2.808  -2.298   0.000  0.00  0.00    +0.000 C 
ENDBRANCH  30  33
ENDBRANCH  22  31
ENDBRANCH   5  22
BRANCH   6  34
ATOM     34  O   UNL     1       6.407   2.294   0.000  0.00  0.00    +0.000 OA
BRANCH  34  42
ATOM     35  O   UNL     1       4.979   2.300   0.000  0.00  0.00    +0.000 OA
ATOM     36  O   UNL     1       4.988   4.774   0.000  0.00  0.00    +0.000 OA
ATOM     37  O   UNL     1       6.414   3.944   0.000  0.00  0.00    +0.000 OA
ATOM     38  O   UNL     1       3.556   3.955   0.000  0.00  0.00    +0.000 OA
ATOM     39  C   UNL     1       4.985   3.950   0.000  0.00  0.00    +0.000 C 
ATOM     40  C   UNL     1       5.698   3.534   0.000  0.00  0.00    +0.000 C 
ATOM     41  C   UNL     1       4.269   3.540   0.000  0.00  0.00    +0.000 C 
ATOM     42  C   UNL     1       5.695   2.709   0.000  0.00  0.00    +0.000 C 
ATOM     43  C   UNL     1       4.266   2.715   0.000  0.00  0.00    +0.000 C 
BRANCH  43  46
ATOM     44  O   UNL     1       2.837   2.720   0.000  0.00  0.00    +0.000 OA
ATOM     45  O   UNL     1       3.546   1.480   0.000  0.00  0.00    +0.000 OA
ATOM     46  C   UNL     1       3.550   2.305   0.000  0.00  0.00    +0.000 C 
ENDBRANCH  43  46
ENDBRANCH  34  42
ENDBRANCH   6  34
TORSDOF 7
