REMARK  Name = 13963764
REMARK  8 active torsions:
REMARK  status: ('A' for Active; 'I' for Inactive)
REMARK    1  A    between atoms: O_2  and  C_18
REMARK    2  A    between atoms: O_2  and  C_20
REMARK    3  A    between atoms: O_8  and  C_24
REMARK    4  A    between atoms: O_9  and  C_25
REMARK    5  A    between atoms: O_11  and  C_30
REMARK    6  A    between atoms: O_12  and  C_32
REMARK    7  A    between atoms: C_17  and  C_19
REMARK    8  A    between atoms: C_27  and  C_29
REMARK                            x       y       z     vdW  Elec       q    Type
REMARK                         _______ _______ _______ _____ _____    ______ ____
ROOT
ATOM      1  O   UNL     1       7.117   1.743   0.000  0.00  0.00    +0.000 OA
ATOM      2  O   UNL     1       7.108  -0.789   0.000  0.00  0.00    +0.000 OA
ATOM      3  C   UNL     1       5.665   0.064   0.000  0.00  0.00    +0.000 A 
ATOM      4  C   UNL     1       6.380   0.477   0.000  0.00  0.00    +0.000 A 
ATOM      5  C   UNL     1       4.951   0.477   0.000  0.00  0.00    +0.000 A 
ATOM      6  C   UNL     1       6.380   1.302   0.000  0.00  0.00    +0.000 A 
ATOM      7  C   UNL     1       4.951   1.302   0.000  0.00  0.00    +0.000 A 
ATOM      8  C   UNL     1       5.665   1.714   0.000  0.00  0.00    +0.000 A 
ATOM      9  C   UNL     1       7.117   0.036   0.000  0.00  0.00    +0.000 A 
ATOM     10  C   UNL     1       7.865   1.319   0.000  0.00  0.00    +0.000 A 
ATOM     11  C   UNL     1       7.865   0.460   0.000  0.00  0.00    +0.000 A 
ENDROOT
BRANCH  10  13
ATOM     12  O   UNL     1      10.716   2.980   0.000  0.00  0.00    +0.000 OA
ATOM     13  C   UNL     1       8.578   1.734   0.000  0.00  0.00    +0.000 A 
ATOM     14  C   UNL     1       9.294   1.325   0.000  0.00  0.00    +0.000 A 
ATOM     15  C   UNL     1       8.575   2.559   0.000  0.00  0.00    +0.000 A 
ATOM     16  C   UNL     1      10.007   1.740   0.000  0.00  0.00    +0.000 A 
ATOM     17  C   UNL     1       9.287   2.974   0.000  0.00  0.00    +0.000 A 
ATOM     18  C   UNL     1      10.004   2.565   0.000  0.00  0.00    +0.000 A 
BRANCH  14  19
ATOM     19  O   UNL     1       9.297   0.499   0.000  0.00  0.00    +0.000 OA
ATOM     20  C   UNL     1      10.013   0.090   0.000  0.00  0.00    +0.000 C 
ENDBRANCH  14  19
BRANCH  16  21
ATOM     21  O   UNL     1      10.723   1.330   0.000  0.00  0.00    +0.000 OA
ATOM     22  C   UNL     1      11.436   1.745   0.000  0.00  0.00    +0.000 C 
ENDBRANCH  16  21
ENDBRANCH  10  13
BRANCH   7  23
ATOM     23  O   UNL     1       4.236   1.714   0.000  0.00  0.00    +0.000 OA
ATOM     24  C   UNL     1       3.522   1.302   0.000  0.00  0.00    +0.000 C 
ENDBRANCH   7  23
BRANCH   8  25
ATOM     25  O   UNL     1       5.665   2.539   0.000  0.00  0.00    +0.000 OA
ATOM     26  C   UNL     1       4.951   2.952   0.000  0.00  0.00    +0.000 C 
ENDBRANCH   8  25
BRANCH   3  27
ATOM     27  O   UNL     1       5.665  -0.761   0.000  0.00  0.00    +0.000 OA
BRANCH  27  36
ATOM     28  O   UNL     1       4.236  -0.761   0.000  0.00  0.00    +0.000 OA
ATOM     29  O   UNL     1       4.236  -3.236   0.000  0.00  0.00    +0.000 OA
ATOM     30  O   UNL     1       2.808  -2.411   0.000  0.00  0.00    +0.000 OA
ATOM     31  O   UNL     1       5.665  -2.411   0.000  0.00  0.00    +0.000 OA
ATOM     32  C   UNL     1       4.236  -2.411   0.000  0.00  0.00    +0.000 C 
ATOM     33  C   UNL     1       3.522  -1.998   0.000  0.00  0.00    +0.000 C 
ATOM     34  C   UNL     1       4.951  -1.998   0.000  0.00  0.00    +0.000 C 
ATOM     35  C   UNL     1       3.522  -1.173   0.000  0.00  0.00    +0.000 C 
ATOM     36  C   UNL     1       4.951  -1.173   0.000  0.00  0.00    +0.000 C 
BRANCH  35  38
ATOM     37  O   UNL     1       2.093  -1.173   0.000  0.00  0.00    +0.000 OA
ATOM     38  C   UNL     1       2.808  -0.761   0.000  0.00  0.00    +0.000 C 
ENDBRANCH  35  38
ENDBRANCH  27  36
ENDBRANCH   3  27
TORSDOF 8
