REMARK  Name = 131832576
REMARK  6 active torsions:
REMARK  status: ('A' for Active; 'I' for Inactive)
REMARK    1  A    between atoms: O_6  and  C_29
REMARK    2  A    between atoms: O_6  and  C_37
REMARK    3  A    between atoms: C_21  and  C_24
REMARK    4  A    between atoms: C_23  and  C_25
REMARK    5  A    between atoms: C_30  and  C_36
REMARK    6  A    between atoms: C_39  and  C_40
REMARK                            x       y       z     vdW  Elec       q    Type
REMARK                         _______ _______ _______ _____ _____    ______ ____
ROOT
ATOM      1  O   UNL     1       7.397   1.172   0.000  0.00  0.00    +0.000 OA
ATOM      2  O   UNL     1       8.859  -1.326   0.000  0.00  0.00    +0.000 OA
ATOM      3  O   UNL     1      10.278   1.155   0.000  0.00  0.00    +0.000 OA
ATOM      4  O   UNL     1       7.416  -1.360   0.000  0.00  0.00    +0.000 OA
ATOM      5  C   UNL     1       9.568  -0.086   0.000  0.00  0.00    +0.000 A 
ATOM      6  C   UNL     1       8.856  -0.501   0.000  0.00  0.00    +0.000 A 
ATOM      7  C   UNL     1       9.565   0.740   0.000  0.00  0.00    +0.000 A 
ATOM      8  C   UNL     1       8.139  -0.091   0.000  0.00  0.00    +0.000 A 
ATOM      9  C   UNL     1       8.136   0.734   0.000  0.00  0.00    +0.000 A 
ATOM     10  C   UNL     1       8.849   1.149   0.000  0.00  0.00    +0.000 A 
ATOM     11  C   UNL     1       7.404  -0.535   0.000  0.00  0.00    +0.000 A 
ATOM     12  C   UNL     1       6.651   0.746   0.000  0.00  0.00    +0.000 A 
ATOM     13  C   UNL     1       6.655  -0.114   0.000  0.00  0.00    +0.000 A 
ENDROOT
BRANCH   5  20
ATOM     14  O   UNL     1      10.288  -1.320   0.000  0.00  0.00    +0.000 OA
ATOM     15  O   UNL     1      10.994   0.745   0.000  0.00  0.00    +0.000 OA
ATOM     16  O   UNL     1      12.426  -0.074   0.000  0.00  0.00    +0.000 OA
ATOM     17  O   UNL     1      12.433  -1.724   0.000  0.00  0.00    +0.000 OA
ATOM     18  C   UNL     1      10.997  -0.080   0.000  0.00  0.00    +0.000 C 
ATOM     19  C   UNL     1      11.713  -0.490   0.000  0.00  0.00    +0.000 C 
ATOM     20  C   UNL     1      10.284  -0.495   0.000  0.00  0.00    +0.000 C 
ATOM     21  C   UNL     1      11.717  -1.315   0.000  0.00  0.00    +0.000 C 
ATOM     22  C   UNL     1      11.004  -1.730   0.000  0.00  0.00    +0.000 C 
BRANCH  22  24
ATOM     23  O   UNL     1      11.723  -2.965   0.000  0.00  0.00    +0.000 OA
ATOM     24  C   UNL     1      11.007  -2.555   0.000  0.00  0.00    +0.000 C 
ENDBRANCH  22  24
ENDBRANCH   5  20
BRANCH  12  28
ATOM     25  O   UNL     1       3.793   2.396   0.000  0.00  0.00    +0.000 OA
ATOM     26  O   UNL     1       5.222   3.220   0.000  0.00  0.00    +0.000 OA
ATOM     27  C   UNL     1       5.222   0.746   0.000  0.00  0.00    +0.000 A 
ATOM     28  C   UNL     1       5.937   1.158   0.000  0.00  0.00    +0.000 A 
ATOM     29  C   UNL     1       4.508   1.158   0.000  0.00  0.00    +0.000 A 
ATOM     30  C   UNL     1       5.937   1.983   0.000  0.00  0.00    +0.000 A 
ATOM     31  C   UNL     1       4.508   1.983   0.000  0.00  0.00    +0.000 A 
ATOM     32  C   UNL     1       5.222   2.396   0.000  0.00  0.00    +0.000 A 
BRANCH  27  33
ATOM     33  O   UNL     1       5.222  -0.080   0.000  0.00  0.00    +0.000 OA
BRANCH  33  41
ATOM     34  O   UNL     1       3.793  -0.080   0.000  0.00  0.00    +0.000 OA
ATOM     35  O   UNL     1       3.793  -2.554   0.000  0.00  0.00    +0.000 OA
ATOM     36  O   UNL     1       5.222  -1.730   0.000  0.00  0.00    +0.000 OA
ATOM     37  O   UNL     1       2.364  -1.730   0.000  0.00  0.00    +0.000 OA
ATOM     38  C   UNL     1       3.793  -1.730   0.000  0.00  0.00    +0.000 C 
ATOM     39  C   UNL     1       4.508  -1.317   0.000  0.00  0.00    +0.000 C 
ATOM     40  C   UNL     1       3.079  -1.317   0.000  0.00  0.00    +0.000 C 
ATOM     41  C   UNL     1       4.508  -0.492   0.000  0.00  0.00    +0.000 C 
ATOM     42  C   UNL     1       3.079  -0.492   0.000  0.00  0.00    +0.000 C 
BRANCH  42  45
ATOM     43  O   UNL     1       1.650  -0.492   0.000  0.00  0.00    +0.000 OA
ATOM     44  O   UNL     1       2.364   0.746   0.000  0.00  0.00    +0.000 OA
ATOM     45  C   UNL     1       2.364  -0.080   0.000  0.00  0.00    +0.000 C 
ENDBRANCH  42  45
ENDBRANCH  33  41
ENDBRANCH  27  33
ENDBRANCH  12  28
TORSDOF 6
