REMARK  Name = 44258883
REMARK  10 active torsions:
REMARK  status: ('A' for Active; 'I' for Inactive)
REMARK    1  A    between atoms: O_3  and  C_21
REMARK    2  A    between atoms: O_3  and  C_36
REMARK    3  A    between atoms: O_4  and  C_23
REMARK    4  A    between atoms: O_4  and  C_31
REMARK    5  A    between atoms: O_7  and  C_28
REMARK    6  A    between atoms: O_7  and  C_32
REMARK    7  A    between atoms: C_22  and  C_29
REMARK    8  A    between atoms: C_34  and  C_41
REMARK    9  A    between atoms: C_36  and  C_42
REMARK   10  A    between atoms: C_45  and  C_49
REMARK                            x       y       z     vdW  Elec       q    Type
REMARK                         _______ _______ _______ _____ _____    ______ ____
ROOT
ATOM      1  O   UNL     1       6.389   1.462   0.000  0.00  0.00    +0.000 OA
ATOM      2  O   UNL     1       4.245   0.224   0.000  0.00  0.00    +0.000 OA
ATOM      3  O   UNL     1       3.499   1.459   0.000  0.00  0.00    +0.000 OA
ATOM      4  C   UNL     1       5.674   0.224   0.000  0.00  0.00    +0.000 A 
ATOM      5  C   UNL     1       4.947   3.169   0.000  0.00  0.00    +0.000 A 
ATOM      6  C   UNL     1       4.960   0.637   0.000  0.00  0.00    +0.000 A 
ATOM      7  C   UNL     1       6.389   0.637   0.000  0.00  0.00    +0.000 A 
ATOM      8  C   UNL     1       4.960   1.462   0.000  0.00  0.00    +0.000 A 
ATOM      9  C   UNL     1       5.674   1.874   0.000  0.00  0.00    +0.000 A 
ATOM     10  C   UNL     1       5.688   2.734   0.000  0.00  0.00    +0.000 A 
ATOM     11  C   UNL     1       4.202   2.739   0.000  0.00  0.00    +0.000 A 
ATOM     12  C   UNL     1       4.209   1.880   0.000  0.00  0.00    +0.000 A 
ENDROOT
BRANCH   7  14
ATOM     13  O   UNL     1       9.247  -1.013   0.000  0.00  0.00    +0.000 OA
ATOM     14  C   UNL     1       7.103   0.224   0.000  0.00  0.00    +0.000 A 
ATOM     15  C   UNL     1       7.103  -0.601   0.000  0.00  0.00    +0.000 A 
ATOM     16  C   UNL     1       7.818   0.637   0.000  0.00  0.00    +0.000 A 
ATOM     17  C   UNL     1       7.818  -1.013   0.000  0.00  0.00    +0.000 A 
ATOM     18  C   UNL     1       8.532   0.224   0.000  0.00  0.00    +0.000 A 
ATOM     19  C   UNL     1       8.532  -0.601   0.000  0.00  0.00    +0.000 A 
ENDBRANCH   7  14
BRANCH   4  20
ATOM     20  O   UNL     1       5.674  -0.601   0.000  0.00  0.00    +0.000 OA
BRANCH  20  28
ATOM     21  O   UNL     1       4.245  -0.601   0.000  0.00  0.00    +0.000 OA
ATOM     22  O   UNL     1       4.245  -3.076   0.000  0.00  0.00    +0.000 OA
ATOM     23  O   UNL     1       2.816  -2.251   0.000  0.00  0.00    +0.000 OA
ATOM     24  C   UNL     1       4.245  -2.251   0.000  0.00  0.00    +0.000 C 
ATOM     25  C   UNL     1       3.531  -1.838   0.000  0.00  0.00    +0.000 C 
ATOM     26  C   UNL     1       4.960  -1.838   0.000  0.00  0.00    +0.000 C 
ATOM     27  C   UNL     1       3.531  -1.013   0.000  0.00  0.00    +0.000 C 
ATOM     28  C   UNL     1       4.960  -1.013   0.000  0.00  0.00    +0.000 C 
BRANCH  27  30
ATOM     29  O   UNL     1       2.102  -1.013   0.000  0.00  0.00    +0.000 OA
ATOM     30  C   UNL     1       2.816  -0.601   0.000  0.00  0.00    +0.000 C 
ENDBRANCH  27  30
BRANCH  26  31
ATOM     31  O   UNL     1       5.674  -2.251   0.000  0.00  0.00    +0.000 OA
BRANCH  31  33
ATOM     32  O   UNL     1       4.960  -3.488   0.000  0.00  0.00    +0.000 OA
ATOM     33  C   UNL     1       5.674  -3.076   0.000  0.00  0.00    +0.000 C 
BRANCH  33  34
ATOM     34  C   UNL     1       6.389  -3.488   0.000  0.00  0.00    +0.000 C 
ATOM     35  C   UNL     1       6.389  -4.313   0.000  0.00  0.00    +0.000 C 
BRANCH  35  38
ATOM     36  O   UNL     1       9.247  -4.313   0.000  0.00  0.00    +0.000 OA
ATOM     37  O   UNL     1       9.247  -5.963   0.000  0.00  0.00    +0.000 OA
ATOM     38  C   UNL     1       7.103  -4.726   0.000  0.00  0.00    +0.000 A 
ATOM     39  C   UNL     1       7.818  -4.313   0.000  0.00  0.00    +0.000 A 
ATOM     40  C   UNL     1       7.103  -5.551   0.000  0.00  0.00    +0.000 A 
ATOM     41  C   UNL     1       8.532  -4.726   0.000  0.00  0.00    +0.000 A 
ATOM     42  C   UNL     1       7.818  -5.963   0.000  0.00  0.00    +0.000 A 
ATOM     43  C   UNL     1       8.532  -5.551   0.000  0.00  0.00    +0.000 A 
ENDBRANCH  35  38
ENDBRANCH  33  34
ENDBRANCH  31  33
ENDBRANCH  26  31
ENDBRANCH  20  28
ENDBRANCH   4  20
BRANCH   5  44
ATOM     44  O   UNL     1       4.950   3.994   0.000  0.00  0.00    +0.000 OA
BRANCH  44  53
ATOM     45  O   UNL     1       4.240   5.234   0.000  0.00  0.00    +0.000 OA
ATOM     46  O   UNL     1       2.092   4.005   0.000  0.00  0.00    +0.000 OA
ATOM     47  O   UNL     1       2.098   5.655   0.000  0.00  0.00    +0.000 OA
ATOM     48  O   UNL     1       3.518   3.175   0.000  0.00  0.00    +0.000 OA
ATOM     49  C   UNL     1       2.808   4.415   0.000  0.00  0.00    +0.000 C 
ATOM     50  C   UNL     1       2.811   5.240   0.000  0.00  0.00    +0.000 C 
ATOM     51  C   UNL     1       3.521   4.000   0.000  0.00  0.00    +0.000 C 
ATOM     52  C   UNL     1       3.527   5.650   0.000  0.00  0.00    +0.000 C 
ATOM     53  C   UNL     1       4.237   4.409   0.000  0.00  0.00    +0.000 C 
ATOM     54  C   UNL     1       3.530   6.475   0.000  0.00  0.00    +0.000 C 
ENDBRANCH  44  53
ENDBRANCH   5  44
TORSDOF 10
