REMARK  Name = 44259351
REMARK  12 active torsions:
REMARK  status: ('A' for Active; 'I' for Inactive)
REMARK    1  A    between atoms: O_1  and  C_20
REMARK    2  A    between atoms: O_1  and  C_22
REMARK    3  A    between atoms: O_5  and  C_26
REMARK    4  A    between atoms: O_5  and  C_33
REMARK    5  A    between atoms: O_9  and  C_29
REMARK    6  A    between atoms: O_9  and  C_32
REMARK    7  A    between atoms: O_10  and  C_30
REMARK    8  A    between atoms: O_10  and  C_36
REMARK    9  A    between atoms: O_18  and  C_48
REMARK   10  A    between atoms: C_27  and  C_31
REMARK   11  A    between atoms: C_28  and  C_30
REMARK   12  A    between atoms: C_34  and  C_39
REMARK                            x       y       z     vdW  Elec       q    Type
REMARK                         _______ _______ _______ _____ _____    ______ ____
ROOT
ATOM      1  O   UNL     1       5.937   0.255   0.000  0.00  0.00    +0.000 OA
ATOM      2  O   UNL     1       4.508  -1.395   0.000  0.00  0.00    +0.000 OA
ATOM      3  O   UNL     1       7.366  -1.395   0.000  0.00  0.00    +0.000 OA
ATOM      4  C   UNL     1       5.937  -1.395   0.000  0.00  0.00    +0.000 C 
ATOM      5  C   UNL     1       5.222  -0.982   0.000  0.00  0.00    +0.000 C 
ATOM      6  C   UNL     1       6.651  -0.982   0.000  0.00  0.00    +0.000 C 
ATOM      7  C   UNL     1       5.222  -0.157   0.000  0.00  0.00    +0.000 C 
ATOM      8  C   UNL     1       6.651  -0.157   0.000  0.00  0.00    +0.000 C 
ENDROOT
BRANCH   7  10
ATOM      9  O   UNL     1       4.508   1.080   0.000  0.00  0.00    +0.000 OA
ATOM     10  C   UNL     1       4.508   0.255   0.000  0.00  0.00    +0.000 C 
ENDBRANCH   7  10
BRANCH   4  11
ATOM     11  O   UNL     1       5.937  -2.220   0.000  0.00  0.00    +0.000 OA
BRANCH  11  15
ATOM     12  O   UNL     1       4.508  -2.220   0.000  0.00  0.00    +0.000 OA
ATOM     13  O   UNL     1       5.937  -3.870   0.000  0.00  0.00    +0.000 OA
ATOM     14  O   UNL     1       4.508  -4.695   0.000  0.00  0.00    +0.000 OA
ATOM     15  C   UNL     1       5.222  -2.632   0.000  0.00  0.00    +0.000 C 
ATOM     16  C   UNL     1       5.222  -3.457   0.000  0.00  0.00    +0.000 C 
ATOM     17  C   UNL     1       4.508  -3.870   0.000  0.00  0.00    +0.000 C 
ATOM     18  C   UNL     1       3.793  -3.457   0.000  0.00  0.00    +0.000 C 
ATOM     19  C   UNL     1       3.793  -2.632   0.000  0.00  0.00    +0.000 C 
BRANCH  18  20
ATOM     20  O   UNL     1       3.079  -3.870   0.000  0.00  0.00    +0.000 OA
BRANCH  20  22
ATOM     21  O   UNL     1       3.793  -5.107   0.000  0.00  0.00    +0.000 OA
ATOM     22  C   UNL     1       3.079  -4.695   0.000  0.00  0.00    +0.000 C 
ATOM     23  C   UNL     1       2.365  -5.107   0.000  0.00  0.00    +0.000 C 
ENDBRANCH  20  22
ENDBRANCH  18  20
BRANCH  19  24
ATOM     24  C   UNL     1       3.079  -2.220   0.000  0.00  0.00    +0.000 C 
BRANCH  24  25
ATOM     25  O   UNL     1       3.079  -1.395   0.000  0.00  0.00    +0.000 OA
BRANCH  25  27
ATOM     26  O   UNL     1       2.365  -0.157   0.000  0.00  0.00    +0.000 OA
ATOM     27  C   UNL     1       2.365  -0.982   0.000  0.00  0.00    +0.000 C 
ATOM     28  C   UNL     1       1.650  -1.395   0.000  0.00  0.00    +0.000 C 
ENDBRANCH  25  27
ENDBRANCH  24  25
ENDBRANCH  19  24
ENDBRANCH  11  15
ENDBRANCH   4  11
BRANCH   8  29
ATOM     29  O   UNL     1       7.366   0.255   0.000  0.00  0.00    +0.000 OA
BRANCH  29  34
ATOM     30  O   UNL     1       8.080   2.318   0.000  0.00  0.00    +0.000 OA
ATOM     31  O   UNL     1       5.937   1.080   0.000  0.00  0.00    +0.000 OA
ATOM     32  O   UNL     1       5.191   2.315   0.000  0.00  0.00    +0.000 OA
ATOM     33  O   UNL     1       6.641   4.850   0.000  0.00  0.00    +0.000 OA
ATOM     34  C   UNL     1       7.366   1.080   0.000  0.00  0.00    +0.000 A 
ATOM     35  C   UNL     1       8.080   1.493   0.000  0.00  0.00    +0.000 A 
ATOM     36  C   UNL     1       6.651   1.493   0.000  0.00  0.00    +0.000 A 
ATOM     37  C   UNL     1       6.651   2.318   0.000  0.00  0.00    +0.000 A 
ATOM     38  C   UNL     1       7.366   2.730   0.000  0.00  0.00    +0.000 A 
ATOM     39  C   UNL     1       5.901   2.736   0.000  0.00  0.00    +0.000 A 
ATOM     40  C   UNL     1       7.379   3.589   0.000  0.00  0.00    +0.000 A 
ATOM     41  C   UNL     1       5.894   3.595   0.000  0.00  0.00    +0.000 A 
ATOM     42  C   UNL     1       6.638   4.025   0.000  0.00  0.00    +0.000 A 
BRANCH  35  44
ATOM     43  O   UNL     1      10.938  -0.157   0.000  0.00  0.00    +0.000 OA
ATOM     44  C   UNL     1       8.795   1.080   0.000  0.00  0.00    +0.000 A 
ATOM     45  C   UNL     1       9.509   1.493   0.000  0.00  0.00    +0.000 A 
ATOM     46  C   UNL     1       8.795   0.255   0.000  0.00  0.00    +0.000 A 
ATOM     47  C   UNL     1      10.224   1.080   0.000  0.00  0.00    +0.000 A 
ATOM     48  C   UNL     1       9.509  -0.157   0.000  0.00  0.00    +0.000 A 
ATOM     49  C   UNL     1      10.224   0.255   0.000  0.00  0.00    +0.000 A 
BRANCH  47  50
ATOM     50  O   UNL     1      10.938   1.493   0.000  0.00  0.00    +0.000 OA
ATOM     51  C   UNL     1      10.938   2.318   0.000  0.00  0.00    +0.000 C 
ENDBRANCH  47  50
ENDBRANCH  35  44
ENDBRANCH  29  34
ENDBRANCH   8  29
TORSDOF 12
