REMARK  Name = 44258544
REMARK  8 active torsions:
REMARK  status: ('A' for Active; 'I' for Inactive)
REMARK    1  A    between atoms: O_2  and  C_17
REMARK    2  A    between atoms: O_2  and  C_19
REMARK    3  A    between atoms: O_8  and  C_23
REMARK    4  A    between atoms: O_9  and  C_24
REMARK    5  A    between atoms: O_11  and  C_29
REMARK    6  A    between atoms: O_12  and  C_31
REMARK    7  A    between atoms: C_16  and  C_18
REMARK    8  A    between atoms: C_26  and  C_28
REMARK                            x       y       z     vdW  Elec       q    Type
REMARK                         _______ _______ _______ _____ _____    ______ ____
ROOT
ATOM      1  O   UNL     1       7.117   2.001   0.000  0.00  0.00    +0.000 OA
ATOM      2  O   UNL     1       7.108  -0.531   0.000  0.00  0.00    +0.000 OA
ATOM      3  C   UNL     1       5.665   0.323   0.000  0.00  0.00    +0.000 A 
ATOM      4  C   UNL     1       6.380   0.735   0.000  0.00  0.00    +0.000 A 
ATOM      5  C   UNL     1       4.951   0.735   0.000  0.00  0.00    +0.000 A 
ATOM      6  C   UNL     1       6.380   1.560   0.000  0.00  0.00    +0.000 A 
ATOM      7  C   UNL     1       4.951   1.560   0.000  0.00  0.00    +0.000 A 
ATOM      8  C   UNL     1       5.665   1.973   0.000  0.00  0.00    +0.000 A 
ATOM      9  C   UNL     1       7.117   0.294   0.000  0.00  0.00    +0.000 A 
ATOM     10  C   UNL     1       7.865   1.577   0.000  0.00  0.00    +0.000 A 
ATOM     11  C   UNL     1       7.865   0.718   0.000  0.00  0.00    +0.000 A 
ENDROOT
BRANCH  10  12
ATOM     12  C   UNL     1       8.578   1.993   0.000  0.00  0.00    +0.000 A 
ATOM     13  C   UNL     1       9.294   1.583   0.000  0.00  0.00    +0.000 A 
ATOM     14  C   UNL     1       8.575   2.818   0.000  0.00  0.00    +0.000 A 
ATOM     15  C   UNL     1      10.007   1.998   0.000  0.00  0.00    +0.000 A 
ATOM     16  C   UNL     1       9.287   3.233   0.000  0.00  0.00    +0.000 A 
ATOM     17  C   UNL     1      10.004   2.823   0.000  0.00  0.00    +0.000 A 
BRANCH  13  18
ATOM     18  O   UNL     1       9.297   0.758   0.000  0.00  0.00    +0.000 OA
ATOM     19  C   UNL     1      10.013   0.348   0.000  0.00  0.00    +0.000 C 
ENDBRANCH  13  18
BRANCH  15  20
ATOM     20  O   UNL     1      10.723   1.589   0.000  0.00  0.00    +0.000 OA
ATOM     21  C   UNL     1      11.436   2.004   0.000  0.00  0.00    +0.000 C 
ENDBRANCH  15  20
ENDBRANCH  10  12
BRANCH   7  22
ATOM     22  O   UNL     1       4.236   1.973   0.000  0.00  0.00    +0.000 OA
ATOM     23  C   UNL     1       3.522   1.560   0.000  0.00  0.00    +0.000 C 
ENDBRANCH   7  22
BRANCH   8  24
ATOM     24  O   UNL     1       5.665   2.798   0.000  0.00  0.00    +0.000 OA
ATOM     25  C   UNL     1       4.951   3.210   0.000  0.00  0.00    +0.000 C 
ENDBRANCH   8  24
BRANCH   3  26
ATOM     26  O   UNL     1       5.665  -0.502   0.000  0.00  0.00    +0.000 OA
BRANCH  26  35
ATOM     27  O   UNL     1       4.236  -0.502   0.000  0.00  0.00    +0.000 OA
ATOM     28  O   UNL     1       4.236  -2.977   0.000  0.00  0.00    +0.000 OA
ATOM     29  O   UNL     1       2.808  -2.152   0.000  0.00  0.00    +0.000 OA
ATOM     30  O   UNL     1       5.665  -2.152   0.000  0.00  0.00    +0.000 OA
ATOM     31  C   UNL     1       4.236  -2.152   0.000  0.00  0.00    +0.000 C 
ATOM     32  C   UNL     1       3.522  -1.740   0.000  0.00  0.00    +0.000 C 
ATOM     33  C   UNL     1       4.951  -1.740   0.000  0.00  0.00    +0.000 C 
ATOM     34  C   UNL     1       3.522  -0.915   0.000  0.00  0.00    +0.000 C 
ATOM     35  C   UNL     1       4.951  -0.915   0.000  0.00  0.00    +0.000 C 
BRANCH  34  37
ATOM     36  O   UNL     1       2.093  -0.915   0.000  0.00  0.00    +0.000 OA
ATOM     37  C   UNL     1       2.808  -0.502   0.000  0.00  0.00    +0.000 C 
ENDBRANCH  34  37
ENDBRANCH  26  35
ENDBRANCH   3  26
TORSDOF 8
