REMARK  Name = 44258366
REMARK  9 active torsions:
REMARK  status: ('A' for Active; 'I' for Inactive)
REMARK    1  A    between atoms: O_1  and  C_16
REMARK    2  A    between atoms: O_1  and  C_21
REMARK    3  A    between atoms: O_6  and  C_22
REMARK    4  A    between atoms: O_6  and  C_34
REMARK    5  A    between atoms: O_10  and  C_30
REMARK    6  A    between atoms: O_15  and  C_45
REMARK    7  A    between atoms: C_18  and  C_26
REMARK    8  A    between atoms: C_20  and  C_27
REMARK    9  A    between atoms: C_38  and  C_40
REMARK                            x       y       z     vdW  Elec       q    Type
REMARK                         _______ _______ _______ _____ _____    ______ ____
ROOT
ATOM      1  O   UNL     1       5.665   1.394   0.000  0.00  0.00    +0.000 OA
ATOM      2  O   UNL     1       3.522   0.157   0.000  0.00  0.00    +0.000 OA
ATOM      3  O   UNL     1       3.522   1.807   0.000  0.00  0.00    +0.000 OA
ATOM      4  C   UNL     1       4.951   0.157   0.000  0.00  0.00    +0.000 C 
ATOM      5  C   UNL     1       4.236   0.569   0.000  0.00  0.00    +0.000 C 
ATOM      6  C   UNL     1       5.665   0.569   0.000  0.00  0.00    +0.000 C 
ATOM      7  C   UNL     1       4.236   1.394   0.000  0.00  0.00    +0.000 C 
ATOM      8  C   UNL     1       4.951   1.807   0.000  0.00  0.00    +0.000 C 
ENDROOT
BRANCH   6  12
ATOM      9  O   UNL     1       7.094   1.394   0.000  0.00  0.00    +0.000 OA
ATOM     10  O   UNL     1       8.546  -1.109   0.000  0.00  0.00    +0.000 OA
ATOM     11  O   UNL     1       8.537   1.423   0.000  0.00  0.00    +0.000 OA
ATOM     12  C   UNL     1       6.380   0.157   0.000  0.00  0.00    +0.000 A 
ATOM     13  C   UNL     1       7.094   0.569   0.000  0.00  0.00    +0.000 A 
ATOM     14  C   UNL     1       6.380  -0.668   0.000  0.00  0.00    +0.000 A 
ATOM     15  C   UNL     1       7.809   0.157   0.000  0.00  0.00    +0.000 A 
ATOM     16  C   UNL     1       7.094  -1.081   0.000  0.00  0.00    +0.000 A 
ATOM     17  C   UNL     1       7.809  -0.668   0.000  0.00  0.00    +0.000 A 
ATOM     18  C   UNL     1       8.546   0.598   0.000  0.00  0.00    +0.000 A 
ATOM     19  C   UNL     1       9.294   0.174   0.000  0.00  0.00    +0.000 A 
ATOM     20  C   UNL     1       9.294  -0.685   0.000  0.00  0.00    +0.000 A 
BRANCH  20  21
ATOM     21  C   UNL     1      10.007  -1.101   0.000  0.00  0.00    +0.000 A 
ATOM     22  C   UNL     1      10.004  -1.926   0.000  0.00  0.00    +0.000 A 
ATOM     23  C   UNL     1      10.723  -0.691   0.000  0.00  0.00    +0.000 A 
ATOM     24  C   UNL     1      10.716  -2.341   0.000  0.00  0.00    +0.000 A 
ATOM     25  C   UNL     1      11.436  -1.106   0.000  0.00  0.00    +0.000 A 
ATOM     26  C   UNL     1      11.432  -1.931   0.000  0.00  0.00    +0.000 A 
BRANCH  26  27
ATOM     27  O   UNL     1      12.145  -2.346   0.000  0.00  0.00    +0.000 OA
ATOM     28  C   UNL     1      12.861  -1.937   0.000  0.00  0.00    +0.000 C 
ENDBRANCH  26  27
ENDBRANCH  20  21
BRANCH  14  29
ATOM     29  O   UNL     1       5.665  -1.081   0.000  0.00  0.00    +0.000 OA
ATOM     30  C   UNL     1       5.665  -1.906   0.000  0.00  0.00    +0.000 C 
ENDBRANCH  14  29
ENDBRANCH   6  12
BRANCH   8  32
ATOM     31  O   UNL     1       4.236   3.044   0.000  0.00  0.00    +0.000 OA
ATOM     32  C   UNL     1       4.951   2.632   0.000  0.00  0.00    +0.000 C 
ENDBRANCH   8  32
BRANCH   4  33
ATOM     33  O   UNL     1       4.951  -0.668   0.000  0.00  0.00    +0.000 OA
BRANCH  33  37
ATOM     34  O   UNL     1       3.522  -0.668   0.000  0.00  0.00    +0.000 OA
ATOM     35  O   UNL     1       3.522  -3.143   0.000  0.00  0.00    +0.000 OA
ATOM     36  O   UNL     1       2.093  -2.318   0.000  0.00  0.00    +0.000 OA
ATOM     37  C   UNL     1       4.236  -1.081   0.000  0.00  0.00    +0.000 C 
ATOM     38  C   UNL     1       4.236  -1.906   0.000  0.00  0.00    +0.000 C 
ATOM     39  C   UNL     1       3.522  -2.318   0.000  0.00  0.00    +0.000 C 
ATOM     40  C   UNL     1       2.808  -1.906   0.000  0.00  0.00    +0.000 C 
ATOM     41  C   UNL     1       2.808  -1.081   0.000  0.00  0.00    +0.000 C 
ATOM     42  C   UNL     1       2.093  -0.668   0.000  0.00  0.00    +0.000 C 
BRANCH  38  43
ATOM     43  O   UNL     1       4.951  -2.318   0.000  0.00  0.00    +0.000 OA
BRANCH  43  45
ATOM     44  O   UNL     1       4.236  -3.556   0.000  0.00  0.00    +0.000 OA
ATOM     45  C   UNL     1       4.951  -3.143   0.000  0.00  0.00    +0.000 C 
ATOM     46  C   UNL     1       5.665  -3.556   0.000  0.00  0.00    +0.000 C 
ENDBRANCH  43  45
ENDBRANCH  38  43
ENDBRANCH  33  37
ENDBRANCH   4  33
TORSDOF 9
