REMARK  Name = 44257623
REMARK  5 active torsions:
REMARK  status: ('A' for Active; 'I' for Inactive)
REMARK    1  A    between atoms: O_1  and  C_13
REMARK    2  A    between atoms: O_1  and  C_16
REMARK    3  A    between atoms: O_5  and  C_19
REMARK    4  A    between atoms: O_5  and  C_23
REMARK    5  A    between atoms: C_31  and  C_33
REMARK                            x       y       z     vdW  Elec       q    Type
REMARK                         _______ _______ _______ _____ _____    ______ ____
ROOT
ATOM      1  O   UNL     1       2.364   1.650   0.000  0.00  0.00    +0.000 OA
ENDROOT
BRANCH   1   5
ATOM      2  O   UNL     1       5.245   1.621   0.000  0.00  0.00    +0.000 OA
ATOM      3  O   UNL     1       3.793   4.125   0.000  0.00  0.00    +0.000 OA
ATOM      4  O   UNL     1       5.236   4.154   0.000  0.00  0.00    +0.000 OA
ATOM      5  C   UNL     1       3.079   2.062   0.000  0.00  0.00    +0.000 A 
ATOM      6  C   UNL     1       3.079   2.888   0.000  0.00  0.00    +0.000 A 
ATOM      7  C   UNL     1       3.793   1.650   0.000  0.00  0.00    +0.000 A 
ATOM      8  C   UNL     1       3.793   3.300   0.000  0.00  0.00    +0.000 A 
ATOM      9  C   UNL     1       4.508   2.062   0.000  0.00  0.00    +0.000 A 
ATOM     10  C   UNL     1       4.508   2.888   0.000  0.00  0.00    +0.000 A 
ATOM     11  C   UNL     1       2.364   3.300   0.000  0.00  0.00    +0.000 C 
ATOM     12  C   UNL     1       5.245   3.329   0.000  0.00  0.00    +0.000 A 
ATOM     13  C   UNL     1       5.993   2.045   0.000  0.00  0.00    +0.000 A 
ATOM     14  C   UNL     1       5.993   2.905   0.000  0.00  0.00    +0.000 A 
BRANCH  13  15
ATOM     15  C   UNL     1       6.706   1.630   0.000  0.00  0.00    +0.000 A 
ATOM     16  C   UNL     1       6.703   0.805   0.000  0.00  0.00    +0.000 A 
ATOM     17  C   UNL     1       7.422   2.040   0.000  0.00  0.00    +0.000 A 
ATOM     18  C   UNL     1       7.415   0.390   0.000  0.00  0.00    +0.000 A 
ATOM     19  C   UNL     1       8.135   1.625   0.000  0.00  0.00    +0.000 A 
ATOM     20  C   UNL     1       8.132   0.800   0.000  0.00  0.00    +0.000 A 
ENDBRANCH  13  15
ENDBRANCH   1   5
BRANCH   1  27
ATOM     21  O   UNL     1       1.650   0.412   0.000  0.00  0.00    +0.000 OA
ATOM     22  O   UNL     1       3.793   0.825   0.000  0.00  0.00    +0.000 OA
ATOM     23  O   UNL     1       2.364  -1.650   0.000  0.00  0.00    +0.000 OA
ATOM     24  C   UNL     1       3.079  -0.412   0.000  0.00  0.00    +0.000 C 
ATOM     25  C   UNL     1       3.079   0.412   0.000  0.00  0.00    +0.000 C 
ATOM     26  C   UNL     1       2.364  -0.825   0.000  0.00  0.00    +0.000 C 
ATOM     27  C   UNL     1       2.364   0.825   0.000  0.00  0.00    +0.000 C 
ATOM     28  C   UNL     1       1.650  -0.412   0.000  0.00  0.00    +0.000 C 
BRANCH  24  29
ATOM     29  O   UNL     1       3.793  -0.825   0.000  0.00  0.00    +0.000 OA
BRANCH  29  34
ATOM     30  O   UNL     1       3.079  -2.062   0.000  0.00  0.00    +0.000 OA
ATOM     31  O   UNL     1       5.222  -1.650   0.000  0.00  0.00    +0.000 OA
ATOM     32  O   UNL     1       5.222  -3.300   0.000  0.00  0.00    +0.000 OA
ATOM     33  O   UNL     1       3.793  -4.125   0.000  0.00  0.00    +0.000 OA
ATOM     34  C   UNL     1       3.793  -1.650   0.000  0.00  0.00    +0.000 C 
ATOM     35  C   UNL     1       4.508  -2.062   0.000  0.00  0.00    +0.000 C 
ATOM     36  C   UNL     1       4.508  -2.888   0.000  0.00  0.00    +0.000 C 
ATOM     37  C   UNL     1       3.793  -3.300   0.000  0.00  0.00    +0.000 C 
ATOM     38  C   UNL     1       3.079  -2.888   0.000  0.00  0.00    +0.000 C 
ENDBRANCH  29  34
ENDBRANCH  24  29
ENDBRANCH   1  27
TORSDOF 5
