REMARK  Name = 44257166
REMARK  8 active torsions:
REMARK  status: ('A' for Active; 'I' for Inactive)
REMARK    1  A    between atoms: O_2  and  C_16
REMARK    2  A    between atoms: O_2  and  C_23
REMARK    3  A    between atoms: O_7  and  C_17
REMARK    4  A    between atoms: O_9  and  C_25
REMARK    5  A    between atoms: C_15  and  C_24
REMARK    6  A    between atoms: C_19  and  C_27
REMARK    7  A    between atoms: C_22  and  C_28
REMARK    8  A    between atoms: C_28  and  C_31
REMARK                            x       y       z     vdW  Elec       q    Type
REMARK                         _______ _______ _______ _____ _____    ______ ____
ROOT
ATOM      1  O   UNL     1       7.114   1.141   0.000  0.00  0.00    +0.000 OA
ATOM      2  O   UNL     1       6.407   3.206   0.000  0.00  0.00    +0.000 OA
ATOM      3  C   UNL     1       5.688   1.971   0.000  0.00  0.00    +0.000 C 
ATOM      4  C   UNL     1       6.404   2.381   0.000  0.00  0.00    +0.000 C 
ATOM      5  C   UNL     1       7.117   1.966   0.000  0.00  0.00    +0.000 C 
ATOM      6  C   UNL     1       5.685   1.146   0.000  0.00  0.00    +0.000 A 
ATOM      7  C   UNL     1       6.398   0.731   0.000  0.00  0.00    +0.000 A 
ATOM      8  C   UNL     1       6.408  -0.128   0.000  0.00  0.00    +0.000 A 
ATOM      9  C   UNL     1       5.665  -0.561   0.000  0.00  0.00    +0.000 A 
ATOM     10  C   UNL     1       4.933   0.731   0.000  0.00  0.00    +0.000 A 
ATOM     11  C   UNL     1       4.923  -0.128   0.000  0.00  0.00    +0.000 A 
ENDROOT
BRANCH   5  13
ATOM     12  O   UNL     1       9.981   3.605   0.000  0.00  0.00    +0.000 OA
ATOM     13  C   UNL     1       7.833   2.376   0.000  0.00  0.00    +0.000 A 
ATOM     14  C   UNL     1       7.836   3.201   0.000  0.00  0.00    +0.000 A 
ATOM     15  C   UNL     1       8.546   1.960   0.000  0.00  0.00    +0.000 A 
ATOM     16  C   UNL     1       8.552   3.610   0.000  0.00  0.00    +0.000 A 
ATOM     17  C   UNL     1       9.262   2.370   0.000  0.00  0.00    +0.000 A 
ATOM     18  C   UNL     1       9.265   3.195   0.000  0.00  0.00    +0.000 A 
ENDBRANCH   5  13
BRANCH   3  19
ATOM     19  O   UNL     1       4.975   2.387   0.000  0.00  0.00    +0.000 OA
ATOM     20  C   UNL     1       4.979   3.212   0.000  0.00  0.00    +0.000 C 
ENDBRANCH   3  19
BRANCH  10  21
ATOM     21  O   UNL     1       4.225   1.155   0.000  0.00  0.00    +0.000 OA
ATOM     22  C   UNL     1       3.504   0.753   0.000  0.00  0.00    +0.000 C 
ENDBRANCH  10  21
BRANCH   9  23
ATOM     23  O   UNL     1       5.665  -1.386   0.000  0.00  0.00    +0.000 OA
BRANCH  23  32
ATOM     24  O   UNL     1       4.236  -1.386   0.000  0.00  0.00    +0.000 OA
ATOM     25  O   UNL     1       4.236  -3.861   0.000  0.00  0.00    +0.000 OA
ATOM     26  O   UNL     1       2.808  -3.036   0.000  0.00  0.00    +0.000 OA
ATOM     27  O   UNL     1       5.665  -3.036   0.000  0.00  0.00    +0.000 OA
ATOM     28  C   UNL     1       4.236  -3.036   0.000  0.00  0.00    +0.000 C 
ATOM     29  C   UNL     1       3.522  -2.623   0.000  0.00  0.00    +0.000 C 
ATOM     30  C   UNL     1       4.951  -2.623   0.000  0.00  0.00    +0.000 C 
ATOM     31  C   UNL     1       3.522  -1.798   0.000  0.00  0.00    +0.000 C 
ATOM     32  C   UNL     1       4.951  -1.798   0.000  0.00  0.00    +0.000 C 
BRANCH  31  34
ATOM     33  O   UNL     1       2.093  -1.798   0.000  0.00  0.00    +0.000 OA
ATOM     34  C   UNL     1       2.808  -1.386   0.000  0.00  0.00    +0.000 C 
ENDBRANCH  31  34
ENDBRANCH  23  32
ENDBRANCH   9  23
BRANCH   8  35
ATOM     35  C   UNL     1       7.125  -0.535   0.000  0.00  0.00    +0.000 C 
BRANCH  35  36
ATOM     36  C   UNL     1       7.132  -1.360   0.000  0.00  0.00    +0.000 C 
ATOM     37  C   UNL     1       7.849  -1.767   0.000  0.00  0.00    +0.000 C 
ATOM     38  C   UNL     1       7.856  -2.592   0.000  0.00  0.00    +0.000 C 
ATOM     39  C   UNL     1       8.561  -1.349   0.000  0.00  0.00    +0.000 C 
ENDBRANCH  35  36
ENDBRANCH   8  35
TORSDOF 8
