REMARK  Name = 42607839
REMARK  7 active torsions:
REMARK  status: ('A' for Active; 'I' for Inactive)
REMARK    1  A    between atoms: O_1  and  C_13
REMARK    2  A    between atoms: O_1  and  C_18
REMARK    3  A    between atoms: O_4  and  C_16
REMARK    4  A    between atoms: O_4  and  C_24
REMARK    5  A    between atoms: C_25  and  C_28
REMARK    6  A    between atoms: C_36  and  C_39
REMARK    7  A    between atoms: C_39  and  C_40
REMARK                            x       y       z     vdW  Elec       q    Type
REMARK                         _______ _______ _______ _____ _____    ______ ____
ROOT
ATOM      1  C   UNL     1       4.951  -2.172   0.000  0.00  0.00    +0.000 A 
ATOM      2  C   UNL     1       5.665  -1.760   0.000  0.00  0.00    +0.000 A 
ATOM      3  C   UNL     1       4.236  -1.760   0.000  0.00  0.00    +0.000 A 
ATOM      4  C   UNL     1       4.951  -0.522   0.000  0.00  0.00    +0.000 A 
ATOM      5  C   UNL     1       5.665  -0.935   0.000  0.00  0.00    +0.000 A 
ATOM      6  C   UNL     1       4.236  -0.935   0.000  0.00  0.00    +0.000 A 
ENDROOT
BRANCH   4  10
ATOM      7  O   UNL     1       5.665   0.715   0.000  0.00  0.00    +0.000 OA
ATOM      8  O   UNL     1       3.522   1.953   0.000  0.00  0.00    +0.000 OA
ATOM      9  O   UNL     1       4.218   3.216   0.000  0.00  0.00    +0.000 OA
ATOM     10  C   UNL     1       4.951   0.303   0.000  0.00  0.00    +0.000 C 
ATOM     11  C   UNL     1       4.236   0.715   0.000  0.00  0.00    +0.000 C 
ATOM     12  C   UNL     1       4.236   1.540   0.000  0.00  0.00    +0.000 C 
ATOM     13  C   UNL     1       4.951   1.953   0.000  0.00  0.00    +0.000 A 
ATOM     14  C   UNL     1       5.665   1.540   0.000  0.00  0.00    +0.000 A 
ATOM     15  C   UNL     1       4.938   2.812   0.000  0.00  0.00    +0.000 A 
ATOM     16  C   UNL     1       5.678   3.247   0.000  0.00  0.00    +0.000 A 
ATOM     17  C   UNL     1       6.416   1.958   0.000  0.00  0.00    +0.000 A 
ATOM     18  C   UNL     1       6.423   2.818   0.000  0.00  0.00    +0.000 A 
BRANCH  16  19
ATOM     19  C   UNL     1       5.675   4.072   0.000  0.00  0.00    +0.000 C 
BRANCH  19  20
ATOM     20  C   UNL     1       6.388   4.488   0.000  0.00  0.00    +0.000 C 
ATOM     21  C   UNL     1       6.385   5.313   0.000  0.00  0.00    +0.000 C 
ATOM     22  C   UNL     1       7.098   5.728   0.000  0.00  0.00    +0.000 C 
ATOM     23  C   UNL     1       5.669   5.722   0.000  0.00  0.00    +0.000 C 
ENDBRANCH  19  20
ENDBRANCH  16  19
ENDBRANCH   4  10
BRANCH   1  24
ATOM     24  O   UNL     1       4.951  -2.997   0.000  0.00  0.00    +0.000 OA
BRANCH  24  31
ATOM     25  O   UNL     1       3.522  -2.997   0.000  0.00  0.00    +0.000 OA
ATOM     26  O   UNL     1       3.522  -5.472   0.000  0.00  0.00    +0.000 OA
ATOM     27  O   UNL     1       2.093  -4.647   0.000  0.00  0.00    +0.000 OA
ATOM     28  C   UNL     1       4.236  -4.235   0.000  0.00  0.00    +0.000 C 
ATOM     29  C   UNL     1       3.522  -4.647   0.000  0.00  0.00    +0.000 C 
ATOM     30  C   UNL     1       2.808  -4.235   0.000  0.00  0.00    +0.000 C 
ATOM     31  C   UNL     1       4.236  -3.410   0.000  0.00  0.00    +0.000 C 
ATOM     32  C   UNL     1       2.808  -3.410   0.000  0.00  0.00    +0.000 C 
ATOM     33  C   UNL     1       2.093  -2.997   0.000  0.00  0.00    +0.000 C 
BRANCH  28  34
ATOM     34  O   UNL     1       4.951  -4.647   0.000  0.00  0.00    +0.000 OA
BRANCH  34  39
ATOM     35  O   UNL     1       5.665  -3.410   0.000  0.00  0.00    +0.000 OA
ATOM     36  O   UNL     1       6.380  -5.472   0.000  0.00  0.00    +0.000 OA
ATOM     37  O   UNL     1       7.809  -4.647   0.000  0.00  0.00    +0.000 OA
ATOM     38  O   UNL     1       7.809  -2.997   0.000  0.00  0.00    +0.000 OA
ATOM     39  C   UNL     1       5.665  -4.235   0.000  0.00  0.00    +0.000 C 
ATOM     40  C   UNL     1       6.380  -4.647   0.000  0.00  0.00    +0.000 C 
ATOM     41  C   UNL     1       7.094  -4.235   0.000  0.00  0.00    +0.000 C 
ATOM     42  C   UNL     1       7.094  -3.410   0.000  0.00  0.00    +0.000 C 
ATOM     43  C   UNL     1       6.380  -2.997   0.000  0.00  0.00    +0.000 C 
ENDBRANCH  34  39
ENDBRANCH  28  34
ENDBRANCH  24  31
ENDBRANCH   1  24
TORSDOF 7
