REMARK  Name = 44257192
REMARK  7 active torsions:
REMARK  status: ('A' for Active; 'I' for Inactive)
REMARK    1  A    between atoms: O_2  and  C_15
REMARK    2  A    between atoms: O_2  and  C_22
REMARK    3  A    between atoms: O_3  and  C_13
REMARK    4  A    between atoms: O_3  and  C_30
REMARK    5  A    between atoms: C_21  and  C_24
REMARK    6  A    between atoms: C_30  and  C_34
REMARK    7  A    between atoms: C_35  and  C_36
REMARK                            x       y       z     vdW  Elec       q    Type
REMARK                         _______ _______ _______ _____ _____    ______ ____
ROOT
ATOM      1  O   UNL     1       3.522  -0.530   0.000  0.00  0.00    +0.000 OA
ATOM      2  O   UNL     1       3.522   1.945   0.000  0.00  0.00    +0.000 OA
ATOM      3  O   UNL     1       2.093   1.120   0.000  0.00  0.00    +0.000 OA
ATOM      4  C   UNL     1       4.236   0.708   0.000  0.00  0.00    +0.000 C 
ATOM      5  C   UNL     1       3.522   1.120   0.000  0.00  0.00    +0.000 C 
ATOM      6  C   UNL     1       4.236  -0.117   0.000  0.00  0.00    +0.000 C 
ATOM      7  C   UNL     1       2.808   0.708   0.000  0.00  0.00    +0.000 C 
ATOM      8  C   UNL     1       2.808  -0.117   0.000  0.00  0.00    +0.000 C 
ENDROOT
BRANCH   6   9
ATOM      9  O   UNL     1       4.951  -0.530   0.000  0.00  0.00    +0.000 OA
BRANCH   9  16
ATOM     10  O   UNL     1       6.403  -3.034   0.000  0.00  0.00    +0.000 OA
ATOM     11  O   UNL     1       3.522  -3.005   0.000  0.00  0.00    +0.000 OA
ATOM     12  C   UNL     1       6.403  -1.326   0.000  0.00  0.00    +0.000 C 
ATOM     13  C   UNL     1       7.150  -1.750   0.000  0.00  0.00    +0.000 C 
ATOM     14  C   UNL     1       5.665  -1.767   0.000  0.00  0.00    +0.000 A 
ATOM     15  C   UNL     1       7.150  -2.610   0.000  0.00  0.00    +0.000 C 
ATOM     16  C   UNL     1       4.951  -1.355   0.000  0.00  0.00    +0.000 A 
ATOM     17  C   UNL     1       5.665  -2.592   0.000  0.00  0.00    +0.000 A 
ATOM     18  C   UNL     1       4.236  -1.767   0.000  0.00  0.00    +0.000 A 
ATOM     19  C   UNL     1       4.951  -3.005   0.000  0.00  0.00    +0.000 A 
ATOM     20  C   UNL     1       4.236  -2.592   0.000  0.00  0.00    +0.000 A 
BRANCH  15  23
ATOM     21  O   UNL     1       8.570  -5.090   0.000  0.00  0.00    +0.000 OA
ATOM     22  O   UNL     1      10.002  -4.271   0.000  0.00  0.00    +0.000 OA
ATOM     23  C   UNL     1       7.863  -3.025   0.000  0.00  0.00    +0.000 A 
ATOM     24  C   UNL     1       7.860  -3.850   0.000  0.00  0.00    +0.000 A 
ATOM     25  C   UNL     1       8.579  -2.615   0.000  0.00  0.00    +0.000 A 
ATOM     26  C   UNL     1       8.573  -4.265   0.000  0.00  0.00    +0.000 A 
ATOM     27  C   UNL     1       9.292  -3.030   0.000  0.00  0.00    +0.000 A 
ATOM     28  C   UNL     1       9.289  -3.855   0.000  0.00  0.00    +0.000 A 
ENDBRANCH  15  23
ENDBRANCH   9  16
ENDBRANCH   6   9
BRANCH   4  29
ATOM     29  O   UNL     1       4.951   1.120   0.000  0.00  0.00    +0.000 OA
BRANCH  29  31
ATOM     30  O   UNL     1       4.236   2.358   0.000  0.00  0.00    +0.000 OA
ATOM     31  C   UNL     1       4.951   1.945   0.000  0.00  0.00    +0.000 C 
BRANCH  31  32
ATOM     32  C   UNL     1       5.665   2.358   0.000  0.00  0.00    +0.000 C 
ATOM     33  C   UNL     1       5.665   3.183   0.000  0.00  0.00    +0.000 C 
BRANCH  33  36
ATOM     34  O   UNL     1       8.523   3.183   0.000  0.00  0.00    +0.000 OA
ATOM     35  O   UNL     1       8.523   4.833   0.000  0.00  0.00    +0.000 OA
ATOM     36  C   UNL     1       6.380   3.595   0.000  0.00  0.00    +0.000 A 
ATOM     37  C   UNL     1       7.094   3.183   0.000  0.00  0.00    +0.000 A 
ATOM     38  C   UNL     1       6.380   4.420   0.000  0.00  0.00    +0.000 A 
ATOM     39  C   UNL     1       7.809   3.595   0.000  0.00  0.00    +0.000 A 
ATOM     40  C   UNL     1       7.094   4.833   0.000  0.00  0.00    +0.000 A 
ATOM     41  C   UNL     1       7.809   4.420   0.000  0.00  0.00    +0.000 A 
ENDBRANCH  33  36
ENDBRANCH  31  32
ENDBRANCH  29  31
ENDBRANCH   4  29
TORSDOF 7
