REMARK  Name = 131750799
REMARK  5 active torsions:
REMARK  status: ('A' for Active; 'I' for Inactive)
REMARK    1  A    between atoms: O_2  and  C_15
REMARK    2  A    between atoms: O_2  and  C_21
REMARK    3  A    between atoms: C_16  and  C_24
REMARK    4  A    between atoms: C_18  and  C_23
REMARK    5  A    between atoms: C_31  and  C_33
REMARK                            x       y       z     vdW  Elec       q    Type
REMARK                         _______ _______ _______ _____ _____    ______ ____
ROOT
ATOM      1  O   UNL     1       7.136   1.598   0.000  0.00  0.00    +0.000 OA
ATOM      2  O   UNL     1       8.546  -0.068   0.000  0.00  0.00    +0.000 OA
ATOM      3  O   UNL     1       4.225   1.652   0.000  0.00  0.00    +0.000 OA
ATOM      4  C   UNL     1       7.837   0.352   0.000  0.00  0.00    +0.000 C 
ATOM      5  C   UNL     1       7.846   1.177   0.000  0.00  0.00    +0.000 C 
ATOM      6  C   UNL     1       7.117  -0.052   0.000  0.00  0.00    +0.000 C 
ATOM      7  C   UNL     1       6.408   0.369   0.000  0.00  0.00    +0.000 A 
ATOM      8  C   UNL     1       5.665  -0.064   0.000  0.00  0.00    +0.000 A 
ATOM      9  C   UNL     1       6.417   1.194   0.000  0.00  0.00    +0.000 A 
ATOM     10  C   UNL     1       4.923   0.369   0.000  0.00  0.00    +0.000 A 
ATOM     11  C   UNL     1       5.685   1.643   0.000  0.00  0.00    +0.000 A 
ATOM     12  C   UNL     1       4.933   1.228   0.000  0.00  0.00    +0.000 A 
ENDROOT
BRANCH   5  14
ATOM     13  O   UNL     1      10.704   1.144   0.000  0.00  0.00    +0.000 OA
ATOM     14  C   UNL     1       8.565   1.582   0.000  0.00  0.00    +0.000 A 
ATOM     15  C   UNL     1       9.275   1.161   0.000  0.00  0.00    +0.000 A 
ATOM     16  C   UNL     1       8.575   2.407   0.000  0.00  0.00    +0.000 A 
ATOM     17  C   UNL     1       9.994   1.565   0.000  0.00  0.00    +0.000 A 
ATOM     18  C   UNL     1      10.004   2.390   0.000  0.00  0.00    +0.000 A 
ATOM     19  C   UNL     1       9.294   2.811   0.000  0.00  0.00    +0.000 A 
BRANCH  18  20
ATOM     20  C   UNL     1      10.723   2.794   0.000  0.00  0.00    +0.000 C 
ATOM     21  C   UNL     1      10.732   3.619   0.000  0.00  0.00    +0.000 C 
ENDBRANCH  18  20
ENDBRANCH   5  14
BRANCH   8  22
ATOM     22  O   UNL     1       5.665  -0.888   0.000  0.00  0.00    +0.000 OA
BRANCH  22  30
ATOM     23  O   UNL     1       4.236  -0.888   0.000  0.00  0.00    +0.000 OA
ATOM     24  O   UNL     1       4.236  -3.364   0.000  0.00  0.00    +0.000 OA
ATOM     25  O   UNL     1       5.665  -2.538   0.000  0.00  0.00    +0.000 OA
ATOM     26  O   UNL     1       2.807  -2.538   0.000  0.00  0.00    +0.000 OA
ATOM     27  C   UNL     1       4.236  -2.538   0.000  0.00  0.00    +0.000 C 
ATOM     28  C   UNL     1       4.951  -2.126   0.000  0.00  0.00    +0.000 C 
ATOM     29  C   UNL     1       3.522  -2.126   0.000  0.00  0.00    +0.000 C 
ATOM     30  C   UNL     1       4.951  -1.301   0.000  0.00  0.00    +0.000 C 
ATOM     31  C   UNL     1       3.522  -1.301   0.000  0.00  0.00    +0.000 C 
BRANCH  31  34
ATOM     32  O   UNL     1       2.093  -1.301   0.000  0.00  0.00    +0.000 OA
ATOM     33  O   UNL     1       2.807  -0.064   0.000  0.00  0.00    +0.000 OA
ATOM     34  C   UNL     1       2.807  -0.888   0.000  0.00  0.00    +0.000 C 
ENDBRANCH  31  34
ENDBRANCH  22  30
ENDBRANCH   8  22
TORSDOF 5
