REMARK  Name = 44259800
REMARK  4 active torsions:
REMARK  status: ('A' for Active; 'I' for Inactive)
REMARK    1  A    between atoms: O_2  and  C_17
REMARK    2  A    between atoms: O_2  and  C_19
REMARK    3  A    between atoms: O_9  and  C_27
REMARK    4  A    between atoms: C_20  and  C_24
REMARK                            x       y       z     vdW  Elec       q    Type
REMARK                         _______ _______ _______ _____ _____    ______ ____
ROOT
ATOM      1  O   UNL     1       5.665   1.004   0.000  0.00  0.00    +0.000 OA
ATOM      2  O   UNL     1       3.522  -0.234   0.000  0.00  0.00    +0.000 OA
ATOM      3  O   UNL     1       2.776   1.001   0.000  0.00  0.00    +0.000 OA
ATOM      4  O   UNL     1       4.226   3.536   0.000  0.00  0.00    +0.000 OA
ATOM      5  C   UNL     1       4.951  -0.234   0.000  0.00  0.00    +0.000 A 
ATOM      6  C   UNL     1       5.665   0.178   0.000  0.00  0.00    +0.000 A 
ATOM      7  C   UNL     1       4.236   0.178   0.000  0.00  0.00    +0.000 A 
ATOM      8  C   UNL     1       4.236   1.004   0.000  0.00  0.00    +0.000 A 
ATOM      9  C   UNL     1       4.951   1.416   0.000  0.00  0.00    +0.000 A 
ATOM     10  C   UNL     1       3.486   1.422   0.000  0.00  0.00    +0.000 A 
ATOM     11  C   UNL     1       4.964   2.275   0.000  0.00  0.00    +0.000 A 
ATOM     12  C   UNL     1       3.479   2.281   0.000  0.00  0.00    +0.000 A 
ATOM     13  C   UNL     1       4.223   2.711   0.000  0.00  0.00    +0.000 A 
ENDROOT
BRANCH   6  16
ATOM     14  O   UNL     1       8.523   0.178   0.000  0.00  0.00    +0.000 OA
ATOM     15  O   UNL     1       8.523  -1.472   0.000  0.00  0.00    +0.000 OA
ATOM     16  C   UNL     1       6.380  -0.234   0.000  0.00  0.00    +0.000 A 
ATOM     17  C   UNL     1       7.094   0.178   0.000  0.00  0.00    +0.000 A 
ATOM     18  C   UNL     1       6.380  -1.059   0.000  0.00  0.00    +0.000 A 
ATOM     19  C   UNL     1       7.809  -0.234   0.000  0.00  0.00    +0.000 A 
ATOM     20  C   UNL     1       7.094  -1.472   0.000  0.00  0.00    +0.000 A 
ATOM     21  C   UNL     1       7.809  -1.059   0.000  0.00  0.00    +0.000 A 
ENDBRANCH   6  16
BRANCH  12  22
ATOM     22  O   UNL     1       2.763   2.691   0.000  0.00  0.00    +0.000 OA
ATOM     23  C   UNL     1       2.760   3.516   0.000  0.00  0.00    +0.000 C 
ENDBRANCH  12  22
BRANCH   5  24
ATOM     24  O   UNL     1       4.951  -1.059   0.000  0.00  0.00    +0.000 OA
BRANCH  24  33
ATOM     25  O   UNL     1       3.522  -1.059   0.000  0.00  0.00    +0.000 OA
ATOM     26  O   UNL     1       3.522  -3.534   0.000  0.00  0.00    +0.000 OA
ATOM     27  O   UNL     1       2.093  -2.709   0.000  0.00  0.00    +0.000 OA
ATOM     28  O   UNL     1       4.951  -2.709   0.000  0.00  0.00    +0.000 OA
ATOM     29  C   UNL     1       3.522  -2.709   0.000  0.00  0.00    +0.000 C 
ATOM     30  C   UNL     1       2.808  -2.296   0.000  0.00  0.00    +0.000 C 
ATOM     31  C   UNL     1       4.236  -2.296   0.000  0.00  0.00    +0.000 C 
ATOM     32  C   UNL     1       2.808  -1.472   0.000  0.00  0.00    +0.000 C 
ATOM     33  C   UNL     1       4.236  -1.472   0.000  0.00  0.00    +0.000 C 
ATOM     34  C   UNL     1       2.093  -1.059   0.000  0.00  0.00    +0.000 C 
ENDBRANCH  24  33
ENDBRANCH   5  24
TORSDOF 4
