REMARK  Name = 44257759
REMARK  10 active torsions:
REMARK  status: ('A' for Active; 'I' for Inactive)
REMARK    1  A    between atoms: O_2  and  C_19
REMARK    2  A    between atoms: O_2  and  C_36
REMARK    3  A    between atoms: O_4  and  C_26
REMARK    4  A    between atoms: O_4  and  C_30
REMARK    5  A    between atoms: C_18  and  C_23
REMARK    6  A    between atoms: C_22  and  C_29
REMARK    7  A    between atoms: C_28  and  C_33
REMARK    8  A    between atoms: C_36  and  C_40
REMARK    9  A    between atoms: C_38  and  C_41
REMARK   10  A    between atoms: C_42  and  C_45
REMARK                            x       y       z     vdW  Elec       q    Type
REMARK                         _______ _______ _______ _____ _____    ______ ____
ROOT
ATOM      1  O   UNL     1       8.546  -1.484   0.000  0.00  0.00    +0.000 OA
ATOM      2  O   UNL     1       7.094  -3.988   0.000  0.00  0.00    +0.000 OA
ATOM      3  O   UNL     1       8.537  -4.017   0.000  0.00  0.00    +0.000 OA
ATOM      4  C   UNL     1       7.094  -1.513   0.000  0.00  0.00    +0.000 A 
ATOM      5  C   UNL     1       6.380  -1.926   0.000  0.00  0.00    +0.000 A 
ATOM      6  C   UNL     1       7.809  -1.926   0.000  0.00  0.00    +0.000 A 
ATOM      7  C   UNL     1       7.809  -2.751   0.000  0.00  0.00    +0.000 A 
ATOM      8  C   UNL     1       6.380  -2.751   0.000  0.00  0.00    +0.000 A 
ATOM      9  C   UNL     1       7.094  -3.163   0.000  0.00  0.00    +0.000 A 
ATOM     10  C   UNL     1       8.546  -3.192   0.000  0.00  0.00    +0.000 A 
ATOM     11  C   UNL     1       9.294  -1.908   0.000  0.00  0.00    +0.000 A 
ATOM     12  C   UNL     1       9.294  -2.768   0.000  0.00  0.00    +0.000 A 
ENDROOT
BRANCH   4  16
ATOM     13  O   UNL     1       7.809  -0.276   0.000  0.00  0.00    +0.000 OA
ATOM     14  O   UNL     1       5.748   1.080   0.000  0.00  0.00    +0.000 OA
ATOM     15  O   UNL     1       7.094   1.787   0.000  0.00  0.00    +0.000 OA
ATOM     16  C   UNL     1       7.094  -0.688   0.000  0.00  0.00    +0.000 C 
ATOM     17  C   UNL     1       6.380  -0.276   0.000  0.00  0.00    +0.000 C 
ATOM     18  C   UNL     1       6.380   0.549   0.000  0.00  0.00    +0.000 C 
ATOM     19  C   UNL     1       7.094   0.962   0.000  0.00  0.00    +0.000 C 
ATOM     20  C   UNL     1       7.809   0.549   0.000  0.00  0.00    +0.000 C 
BRANCH  20  22
ATOM     21  O   UNL     1       8.523   1.787   0.000  0.00  0.00    +0.000 OA
ATOM     22  C   UNL     1       8.523   0.962   0.000  0.00  0.00    +0.000 C 
ENDBRANCH  20  22
BRANCH  17  23
ATOM     23  O   UNL     1       5.665  -0.688   0.000  0.00  0.00    +0.000 OA
BRANCH  23  25
ATOM     24  O   UNL     1       4.236  -0.688   0.000  0.00  0.00    +0.000 OA
ATOM     25  C   UNL     1       4.951  -0.276   0.000  0.00  0.00    +0.000 C 
BRANCH  25  26
ATOM     26  C   UNL     1       4.808   0.537   0.000  0.00  0.00    +0.000 C 
ATOM     27  C   UNL     1       4.032   0.819   0.000  0.00  0.00    +0.000 C 
BRANCH  27  29
ATOM     28  O   UNL     1       3.459   4.069   0.000  0.00  0.00    +0.000 OA
ATOM     29  C   UNL     1       3.889   1.631   0.000  0.00  0.00    +0.000 A 
ATOM     30  C   UNL     1       4.521   2.162   0.000  0.00  0.00    +0.000 A 
ATOM     31  C   UNL     1       3.114   1.914   0.000  0.00  0.00    +0.000 A 
ATOM     32  C   UNL     1       4.378   2.974   0.000  0.00  0.00    +0.000 A 
ATOM     33  C   UNL     1       2.971   2.726   0.000  0.00  0.00    +0.000 A 
ATOM     34  C   UNL     1       3.603   3.256   0.000  0.00  0.00    +0.000 A 
ENDBRANCH  27  29
ENDBRANCH  25  26
ENDBRANCH  23  25
ENDBRANCH  17  23
ENDBRANCH   4  16
BRANCH  11  36
ATOM     35  O   UNL     1      12.145  -0.247   0.000  0.00  0.00    +0.000 OA
ATOM     36  C   UNL     1      10.007  -1.493   0.000  0.00  0.00    +0.000 A 
ATOM     37  C   UNL     1      10.723  -1.903   0.000  0.00  0.00    +0.000 A 
ATOM     38  C   UNL     1      10.004  -0.668   0.000  0.00  0.00    +0.000 A 
ATOM     39  C   UNL     1      11.436  -1.488   0.000  0.00  0.00    +0.000 A 
ATOM     40  C   UNL     1      10.716  -0.253   0.000  0.00  0.00    +0.000 A 
ATOM     41  C   UNL     1      11.432  -0.663   0.000  0.00  0.00    +0.000 A 
ENDBRANCH  11  36
BRANCH   5  42
ATOM     42  O   UNL     1       5.665  -1.513   0.000  0.00  0.00    +0.000 OA
BRANCH  42  49
ATOM     43  O   UNL     1       4.236  -1.513   0.000  0.00  0.00    +0.000 OA
ATOM     44  O   UNL     1       5.665  -3.163   0.000  0.00  0.00    +0.000 OA
ATOM     45  O   UNL     1       4.236  -3.988   0.000  0.00  0.00    +0.000 OA
ATOM     46  O   UNL     1       2.808  -3.163   0.000  0.00  0.00    +0.000 OA
ATOM     47  C   UNL     1       4.951  -2.751   0.000  0.00  0.00    +0.000 C 
ATOM     48  C   UNL     1       4.236  -3.163   0.000  0.00  0.00    +0.000 C 
ATOM     49  C   UNL     1       4.951  -1.926   0.000  0.00  0.00    +0.000 C 
ATOM     50  C   UNL     1       3.522  -2.751   0.000  0.00  0.00    +0.000 C 
ATOM     51  C   UNL     1       3.522  -1.926   0.000  0.00  0.00    +0.000 C 
BRANCH  51  53
ATOM     52  O   UNL     1       2.093  -1.926   0.000  0.00  0.00    +0.000 OA
ATOM     53  C   UNL     1       2.808  -1.513   0.000  0.00  0.00    +0.000 C 
ENDBRANCH  51  53
ENDBRANCH  42  49
ENDBRANCH   5  42
TORSDOF 10
