REMARK  Name = 44258515
REMARK  5 active torsions:
REMARK  status: ('A' for Active; 'I' for Inactive)
REMARK    1  A    between atoms: O_1  and  C_16
REMARK    2  A    between atoms: O_1  and  C_18
REMARK    3  A    between atoms: O_4  and  C_20
REMARK    4  A    between atoms: O_4  and  C_26
REMARK    5  A    between atoms: C_33  and  C_35
REMARK                            x       y       z     vdW  Elec       q    Type
REMARK                         _______ _______ _______ _____ _____    ______ ____
ROOT
ATOM      1  O   UNL     1       8.818   0.384   0.000  0.00  0.00    +0.000 OA
ATOM      2  O   UNL     1       5.937   2.062   0.000  0.00  0.00    +0.000 OA
ATOM      3  O   UNL     1       7.366   2.888   0.000  0.00  0.00    +0.000 OA
ATOM      4  O   UNL     1       8.808   2.916   0.000  0.00  0.00    +0.000 OA
ATOM      5  C   UNL     1       6.651   0.825   0.000  0.00  0.00    +0.000 A 
ATOM      6  C   UNL     1       6.651   1.650   0.000  0.00  0.00    +0.000 A 
ATOM      7  C   UNL     1       7.366   0.412   0.000  0.00  0.00    +0.000 A 
ATOM      8  C   UNL     1       8.080   0.825   0.000  0.00  0.00    +0.000 A 
ATOM      9  C   UNL     1       7.366   2.062   0.000  0.00  0.00    +0.000 A 
ATOM     10  C   UNL     1       8.080   1.650   0.000  0.00  0.00    +0.000 A 
ATOM     11  C   UNL     1       8.818   2.091   0.000  0.00  0.00    +0.000 A 
ATOM     12  C   UNL     1       9.565   0.808   0.000  0.00  0.00    +0.000 A 
ATOM     13  C   UNL     1       9.565   1.667   0.000  0.00  0.00    +0.000 A 
ENDROOT
BRANCH  12  16
ATOM     14  O   UNL     1      10.985  -1.673   0.000  0.00  0.00    +0.000 OA
ATOM     15  O   UNL     1      12.417  -0.853   0.000  0.00  0.00    +0.000 OA
ATOM     16  C   UNL     1      10.278   0.393   0.000  0.00  0.00    +0.000 A 
ATOM     17  C   UNL     1      10.275  -0.432   0.000  0.00  0.00    +0.000 A 
ATOM     18  C   UNL     1      10.994   0.802   0.000  0.00  0.00    +0.000 A 
ATOM     19  C   UNL     1      10.988  -0.848   0.000  0.00  0.00    +0.000 A 
ATOM     20  C   UNL     1      11.707   0.387   0.000  0.00  0.00    +0.000 A 
ATOM     21  C   UNL     1      11.704  -0.438   0.000  0.00  0.00    +0.000 A 
ENDBRANCH  12  16
BRANCH   5  22
ATOM     22  O   UNL     1       5.937   0.412   0.000  0.00  0.00    +0.000 OA
BRANCH  22  28
ATOM     23  O   UNL     1       6.651  -0.825   0.000  0.00  0.00    +0.000 OA
ATOM     24  O   UNL     1       4.508  -2.062   0.000  0.00  0.00    +0.000 OA
ATOM     25  O   UNL     1       5.937  -2.888   0.000  0.00  0.00    +0.000 OA
ATOM     26  C   UNL     1       5.222  -0.825   0.000  0.00  0.00    +0.000 C 
ATOM     27  C   UNL     1       5.222  -1.650   0.000  0.00  0.00    +0.000 C 
ATOM     28  C   UNL     1       5.937  -0.412   0.000  0.00  0.00    +0.000 C 
ATOM     29  C   UNL     1       5.937  -2.062   0.000  0.00  0.00    +0.000 C 
ATOM     30  C   UNL     1       6.651  -1.650   0.000  0.00  0.00    +0.000 C 
BRANCH  26  31
ATOM     31  O   UNL     1       4.508  -0.412   0.000  0.00  0.00    +0.000 OA
BRANCH  31  36
ATOM     32  O   UNL     1       3.793  -1.650   0.000  0.00  0.00    +0.000 OA
ATOM     33  O   UNL     1       3.079   0.412   0.000  0.00  0.00    +0.000 OA
ATOM     34  O   UNL     1       1.650  -0.412   0.000  0.00  0.00    +0.000 OA
ATOM     35  O   UNL     1       1.650  -2.062   0.000  0.00  0.00    +0.000 OA
ATOM     36  C   UNL     1       3.793  -0.825   0.000  0.00  0.00    +0.000 C 
ATOM     37  C   UNL     1       3.079  -0.412   0.000  0.00  0.00    +0.000 C 
ATOM     38  C   UNL     1       2.364  -0.825   0.000  0.00  0.00    +0.000 C 
ATOM     39  C   UNL     1       2.364  -1.650   0.000  0.00  0.00    +0.000 C 
ATOM     40  C   UNL     1       3.079  -2.062   0.000  0.00  0.00    +0.000 C 
ENDBRANCH  31  36
ENDBRANCH  26  31
ENDBRANCH  22  28
ENDBRANCH   5  22
TORSDOF 5
