REMARK  Name = 131838531
REMARK  3 active torsions:
REMARK  status: ('A' for Active; 'I' for Inactive)
REMARK    1  A    between atoms: O_5  and  C_24
REMARK    2  A    between atoms: C_14  and  C_17
REMARK    3  A    between atoms: C_16  and  C_21
REMARK                            x       y       z     vdW  Elec       q    Type
REMARK                         _______ _______ _______ _____ _____    ______ ____
ROOT
ATOM      1  O   UNL     1       6.699   0.094   0.000  0.00  0.00    +0.000 OA
ATOM      2  O   UNL     1       5.248  -2.385   0.000  0.00  0.00    +0.000 OA
ATOM      3  O   UNL     1       4.556   0.506   0.000  0.00  0.00    +0.000 OA
ATOM      4  O   UNL     1       8.172  -2.418   0.000  0.00  0.00    +0.000 OA
ATOM      5  C   UNL     1       5.984  -1.144   0.000  0.00  0.00    +0.000 A 
ATOM      6  C   UNL     1       5.270  -0.731   0.000  0.00  0.00    +0.000 A 
ATOM      7  C   UNL     1       6.699  -0.731   0.000  0.00  0.00    +0.000 A 
ATOM      8  C   UNL     1       5.971  -2.003   0.000  0.00  0.00    +0.000 A 
ATOM      9  C   UNL     1       5.270   0.094   0.000  0.00  0.00    +0.000 A 
ATOM     10  C   UNL     1       5.984   0.506   0.000  0.00  0.00    +0.000 A 
ATOM     11  C   UNL     1       4.561  -1.139   0.000  0.00  0.00    +0.000 A 
ATOM     12  C   UNL     1       4.550  -1.957   0.000  0.00  0.00    +0.000 A 
ATOM     13  C   UNL     1       7.450  -1.149   0.000  0.00  0.00    +0.000 A 
ATOM     14  C   UNL     1       6.712  -2.438   0.000  0.00  0.00    +0.000 A 
ATOM     15  C   UNL     1       7.456  -2.009   0.000  0.00  0.00    +0.000 A 
ENDROOT
BRANCH  10  18
ATOM     16  O   UNL     1       7.413   2.981   0.000  0.00  0.00    +0.000 OA
ATOM     17  O   UNL     1       5.984   3.806   0.000  0.00  0.00    +0.000 OA
ATOM     18  C   UNL     1       5.984   1.331   0.000  0.00  0.00    +0.000 A 
ATOM     19  C   UNL     1       5.270   1.744   0.000  0.00  0.00    +0.000 A 
ATOM     20  C   UNL     1       6.699   1.744   0.000  0.00  0.00    +0.000 A 
ATOM     21  C   UNL     1       5.270   2.569   0.000  0.00  0.00    +0.000 A 
ATOM     22  C   UNL     1       6.699   2.569   0.000  0.00  0.00    +0.000 A 
ATOM     23  C   UNL     1       5.984   2.981   0.000  0.00  0.00    +0.000 A 
BRANCH  21  24
ATOM     24  O   UNL     1       4.556   2.981   0.000  0.00  0.00    +0.000 OA
ATOM     25  C   UNL     1       4.556   3.806   0.000  0.00  0.00    +0.000 C 
ENDBRANCH  21  24
ENDBRANCH  10  18
BRANCH  12  27
ATOM     26  O   UNL     1       1.660  -3.551   0.000  0.00  0.00    +0.000 OA
ATOM     27  C   UNL     1       3.827  -2.356   0.000  0.00  0.00    +0.000 A 
ATOM     28  C   UNL     1       3.811  -3.180   0.000  0.00  0.00    +0.000 A 
ATOM     29  C   UNL     1       3.121  -1.929   0.000  0.00  0.00    +0.000 A 
ATOM     30  C   UNL     1       3.089  -3.579   0.000  0.00  0.00    +0.000 A 
ATOM     31  C   UNL     1       2.399  -2.328   0.000  0.00  0.00    +0.000 A 
ATOM     32  C   UNL     1       2.382  -3.152   0.000  0.00  0.00    +0.000 A 
ENDBRANCH  12  27
TORSDOF 3
