REMARK  Name = 44257902
REMARK  13 active torsions:
REMARK  status: ('A' for Active; 'I' for Inactive)
REMARK    1  A    between atoms: O_1  and  C_25
REMARK    2  A    between atoms: O_1  and  C_27
REMARK    3  A    between atoms: O_4  and  C_29
REMARK    4  A    between atoms: O_4  and  C_35
REMARK    5  A    between atoms: O_5  and  C_26
REMARK    6  A    between atoms: O_5  and  C_37
REMARK    7  A    between atoms: O_13  and  C_39
REMARK    8  A    between atoms: O_13  and  C_49
REMARK    9  A    between atoms: O_24  and  C_63
REMARK   10  A    between atoms: C_33  and  C_45
REMARK   11  A    between atoms: C_34  and  C_46
REMARK   12  A    between atoms: C_41  and  C_47
REMARK   13  A    between atoms: C_56  and  C_58
REMARK                            x       y       z     vdW  Elec       q    Type
REMARK                         _______ _______ _______ _____ _____    ______ ____
ROOT
ATOM      1  O   UNL     1       6.691  -1.134   0.000  0.00  0.00    +0.000 OA
ENDROOT
BRANCH   1   7
ATOM      2  O   UNL     1       5.262  -1.134   0.000  0.00  0.00    +0.000 OA
ATOM      3  O   UNL     1       5.262  -3.609   0.000  0.00  0.00    +0.000 OA
ATOM      4  O   UNL     1       3.833  -2.784   0.000  0.00  0.00    +0.000 OA
ATOM      5  C   UNL     1       5.976  -2.371   0.000  0.00  0.00    +0.000 C 
ATOM      6  C   UNL     1       5.262  -2.784   0.000  0.00  0.00    +0.000 C 
ATOM      7  C   UNL     1       5.976  -1.546   0.000  0.00  0.00    +0.000 C 
ATOM      8  C   UNL     1       4.547  -2.371   0.000  0.00  0.00    +0.000 C 
ATOM      9  C   UNL     1       4.547  -1.546   0.000  0.00  0.00    +0.000 C 
BRANCH   9  11
ATOM     10  O   UNL     1       3.119  -1.546   0.000  0.00  0.00    +0.000 OA
ATOM     11  C   UNL     1       3.833  -1.134   0.000  0.00  0.00    +0.000 C 
ENDBRANCH   9  11
BRANCH   5  12
ATOM     12  O   UNL     1       6.691  -2.784   0.000  0.00  0.00    +0.000 OA
BRANCH  12  17
ATOM     13  O   UNL     1       5.976  -4.021   0.000  0.00  0.00    +0.000 OA
ATOM     14  O   UNL     1       8.120  -5.259   0.000  0.00  0.00    +0.000 OA
ATOM     15  O   UNL     1       6.691  -6.084   0.000  0.00  0.00    +0.000 OA
ATOM     16  C   UNL     1       7.405  -4.021   0.000  0.00  0.00    +0.000 C 
ATOM     17  C   UNL     1       6.691  -3.609   0.000  0.00  0.00    +0.000 C 
ATOM     18  C   UNL     1       7.405  -4.846   0.000  0.00  0.00    +0.000 C 
ATOM     19  C   UNL     1       6.691  -5.259   0.000  0.00  0.00    +0.000 C 
ATOM     20  C   UNL     1       5.976  -4.846   0.000  0.00  0.00    +0.000 C 
BRANCH  20  22
ATOM     21  O   UNL     1       4.547  -4.846   0.000  0.00  0.00    +0.000 OA
ATOM     22  C   UNL     1       5.262  -5.259   0.000  0.00  0.00    +0.000 C 
ENDBRANCH  20  22
BRANCH  16  23
ATOM     23  O   UNL     1       8.120  -3.609   0.000  0.00  0.00    +0.000 OA
BRANCH  23  28
ATOM     24  O   UNL     1       8.834  -4.846   0.000  0.00  0.00    +0.000 OA
ATOM     25  O   UNL     1       9.549  -2.784   0.000  0.00  0.00    +0.000 OA
ATOM     26  O   UNL     1      10.978  -3.609   0.000  0.00  0.00    +0.000 OA
ATOM     27  O   UNL     1      10.978  -5.259   0.000  0.00  0.00    +0.000 OA
ATOM     28  C   UNL     1       8.834  -4.021   0.000  0.00  0.00    +0.000 C 
ATOM     29  C   UNL     1       9.549  -3.609   0.000  0.00  0.00    +0.000 C 
ATOM     30  C   UNL     1      10.263  -4.021   0.000  0.00  0.00    +0.000 C 
ATOM     31  C   UNL     1      10.263  -4.846   0.000  0.00  0.00    +0.000 C 
ATOM     32  C   UNL     1       9.549  -5.259   0.000  0.00  0.00    +0.000 C 
ATOM     33  C   UNL     1       9.549  -6.084   0.000  0.00  0.00    +0.000 C 
ENDBRANCH  23  28
ENDBRANCH  16  23
ENDBRANCH  12  17
ENDBRANCH   5  12
ENDBRANCH   1   7
BRANCH   1  37
ATOM     34  O   UNL     1       5.976   0.929   0.000  0.00  0.00    +0.000 OA
ATOM     35  O   UNL     1       8.120  -0.309   0.000  0.00  0.00    +0.000 OA
ATOM     36  O   UNL     1       8.120   1.341   0.000  0.00  0.00    +0.000 OA
ATOM     37  C   UNL     1       6.691  -0.309   0.000  0.00  0.00    +0.000 C 
ATOM     38  C   UNL     1       7.405   0.104   0.000  0.00  0.00    +0.000 C 
ATOM     39  C   UNL     1       7.405   0.929   0.000  0.00  0.00    +0.000 C 
ATOM     40  C   UNL     1       5.976   0.104   0.000  0.00  0.00    +0.000 C 
ATOM     41  C   UNL     1       6.691   1.341   0.000  0.00  0.00    +0.000 C 
BRANCH  41  43
ATOM     42  O   UNL     1       7.405   2.579   0.000  0.00  0.00    +0.000 OA
ATOM     43  C   UNL     1       6.691   2.166   0.000  0.00  0.00    +0.000 C 
ENDBRANCH  41  43
BRANCH  40  44
ATOM     44  O   UNL     1       5.262  -0.309   0.000  0.00  0.00    +0.000 OA
BRANCH  44  48
ATOM     45  O   UNL     1       3.798   2.209   0.000  0.00  0.00    +0.000 OA
ATOM     46  O   UNL     1       2.342  -0.286   0.000  0.00  0.00    +0.000 OA
ATOM     47  O   UNL     1       1.650   0.980   0.000  0.00  0.00    +0.000 OA
ATOM     48  C   UNL     1       4.547   0.104   0.000  0.00  0.00    +0.000 A 
ATOM     49  C   UNL     1       4.544   0.963   0.000  0.00  0.00    +0.000 A 
ATOM     50  C   UNL     1       3.802  -0.323   0.000  0.00  0.00    +0.000 A 
ATOM     51  C   UNL     1       3.795   1.384   0.000  0.00  0.00    +0.000 A 
ATOM     52  C   UNL     1       3.062   0.115   0.000  0.00  0.00    +0.000 A 
ATOM     53  C   UNL     1       3.079   0.974   0.000  0.00  0.00    +0.000 A 
ATOM     54  C   UNL     1       2.366   1.390   0.000  0.00  0.00    +0.000 A 
ATOM     55  C   UNL     1       3.085   2.624   0.000  0.00  0.00    +0.000 A 
ATOM     56  C   UNL     1       2.369   2.215   0.000  0.00  0.00    +0.000 A 
BRANCH  55  57
ATOM     57  C   UNL     1       3.088   3.449   0.000  0.00  0.00    +0.000 A 
ATOM     58  C   UNL     1       2.376   3.865   0.000  0.00  0.00    +0.000 A 
ATOM     59  C   UNL     1       3.805   3.859   0.000  0.00  0.00    +0.000 A 
ATOM     60  C   UNL     1       2.379   4.689   0.000  0.00  0.00    +0.000 A 
ATOM     61  C   UNL     1       3.808   4.684   0.000  0.00  0.00    +0.000 A 
ATOM     62  C   UNL     1       3.095   5.099   0.000  0.00  0.00    +0.000 A 
BRANCH  62  63
ATOM     63  O   UNL     1       3.098   5.924   0.000  0.00  0.00    +0.000 OA
ATOM     64  C   UNL     1       2.385   6.340   0.000  0.00  0.00    +0.000 C 
ENDBRANCH  62  63
ENDBRANCH  55  57
ENDBRANCH  44  48
ENDBRANCH  40  44
ENDBRANCH   1  37
TORSDOF 13
