REMARK  Name = 131838522
REMARK  8 active torsions:
REMARK  status: ('A' for Active; 'I' for Inactive)
REMARK    1  A    between atoms: S_1  and  O_12
REMARK    2  A    between atoms: O_3  and  C_20
REMARK    3  A    between atoms: O_3  and  C_22
REMARK    4  A    between atoms: O_12  and  C_36
REMARK    5  A    between atoms: C_19  and  C_21
REMARK    6  A    between atoms: C_25  and  C_26
REMARK    7  A    between atoms: C_26  and  C_29
REMARK    8  A    between atoms: C_30  and  C_31
REMARK                            x       y       z     vdW  Elec       q    Type
REMARK                         _______ _______ _______ _____ _____    ______ ____
ROOT
ATOM      1  O   UNL     1       7.094  -1.984   0.000  0.00  0.00    +0.000 OA
ATOM      2  O   UNL     1       4.236  -1.984   0.000  0.00  0.00    +0.000 OA
ATOM      3  O   UNL     1       5.665   0.491   0.000  0.00  0.00    +0.000 OA
ATOM      4  C   UNL     1       5.665  -1.984   0.000  0.00  0.00    +0.000 A 
ATOM      5  C   UNL     1       6.380  -1.572   0.000  0.00  0.00    +0.000 A 
ATOM      6  C   UNL     1       4.951  -1.572   0.000  0.00  0.00    +0.000 A 
ATOM      7  C   UNL     1       6.380  -0.747   0.000  0.00  0.00    +0.000 A 
ATOM      8  C   UNL     1       5.665  -0.334   0.000  0.00  0.00    +0.000 A 
ATOM      9  C   UNL     1       4.951  -0.747   0.000  0.00  0.00    +0.000 A 
ENDROOT
BRANCH   7  11
ATOM     10  O   UNL     1       7.809  -0.747   0.000  0.00  0.00    +0.000 OA
ATOM     11  C   UNL     1       7.094  -0.334   0.000  0.00  0.00    +0.000 C 
BRANCH  11  12
ATOM     12  C   UNL     1       7.094   0.491   0.000  0.00  0.00    +0.000 C 
ATOM     13  C   UNL     1       7.809   0.903   0.000  0.00  0.00    +0.000 C 
BRANCH  13  14
ATOM     14  C   UNL     1       7.809   1.728   0.000  0.00  0.00    +0.000 A 
ATOM     15  C   UNL     1       7.094   2.141   0.000  0.00  0.00    +0.000 A 
ATOM     16  C   UNL     1       8.523   2.141   0.000  0.00  0.00    +0.000 A 
ATOM     17  C   UNL     1       7.094   2.966   0.000  0.00  0.00    +0.000 A 
ATOM     18  C   UNL     1       8.523   2.966   0.000  0.00  0.00    +0.000 A 
ATOM     19  C   UNL     1       7.809   3.378   0.000  0.00  0.00    +0.000 A 
BRANCH  19  20
ATOM     20  O   UNL     1       7.809   4.203   0.000  0.00  0.00    +0.000 OA
BRANCH  20  21
ATOM     21  S   UNL     1       8.523   4.616   0.000  0.00  0.00    +0.000 S 
ATOM     22  O   UNL     1       9.238   5.028   0.000  0.00  0.00    +0.000 OA
ATOM     23  O   UNL     1       8.111   5.330   0.000  0.00  0.00    +0.000 OA
ATOM     24  O   UNL     1       8.936   3.901   0.000  0.00  0.00    +0.000 OA
ENDBRANCH  20  21
ENDBRANCH  19  20
ENDBRANCH  13  14
ENDBRANCH  11  12
ENDBRANCH   7  11
BRANCH   4  25
ATOM     25  O   UNL     1       5.665  -2.809   0.000  0.00  0.00    +0.000 OA
BRANCH  25  34
ATOM     26  O   UNL     1       4.236  -2.809   0.000  0.00  0.00    +0.000 OA
ATOM     27  O   UNL     1       4.236  -5.284   0.000  0.00  0.00    +0.000 OA
ATOM     28  O   UNL     1       2.808  -4.459   0.000  0.00  0.00    +0.000 OA
ATOM     29  O   UNL     1       5.665  -4.459   0.000  0.00  0.00    +0.000 OA
ATOM     30  C   UNL     1       4.236  -4.459   0.000  0.00  0.00    +0.000 C 
ATOM     31  C   UNL     1       3.522  -4.047   0.000  0.00  0.00    +0.000 C 
ATOM     32  C   UNL     1       4.951  -4.047   0.000  0.00  0.00    +0.000 C 
ATOM     33  C   UNL     1       3.522  -3.222   0.000  0.00  0.00    +0.000 C 
ATOM     34  C   UNL     1       4.951  -3.222   0.000  0.00  0.00    +0.000 C 
BRANCH  33  36
ATOM     35  O   UNL     1       2.093  -3.222   0.000  0.00  0.00    +0.000 OA
ATOM     36  C   UNL     1       2.808  -2.809   0.000  0.00  0.00    +0.000 C 
ENDBRANCH  33  36
ENDBRANCH  25  34
ENDBRANCH   4  25
TORSDOF 8
