REMARK  Name = 131835917
REMARK  11 active torsions:
REMARK  status: ('A' for Active; 'I' for Inactive)
REMARK    1  A    between atoms: O_2  and  C_16
REMARK    2  A    between atoms: O_2  and  C_19
REMARK    3  A    between atoms: C_17  and  C_18
REMARK    4  A    between atoms: C_20  and  C_24
REMARK    5  A    between atoms: C_24  and  C_30
REMARK    6  A    between atoms: C_26  and  C_29
REMARK    7  A    between atoms: C_28  and  C_31
REMARK    8  A    between atoms: C_29  and  C_32
REMARK    9  A    between atoms: C_33  and  C_35
REMARK   10  A    between atoms: C_35  and  C_38
REMARK   11  A    between atoms: C_38  and  C_45
REMARK                            x       y       z     vdW  Elec       q    Type
REMARK                         _______ _______ _______ _____ _____    ______ ____
ROOT
ATOM      1  O   UNL     1       7.114  -0.467   0.000  0.00  0.00    +0.000 OA
ATOM      2  O   UNL     1       4.975   0.779   0.000  0.00  0.00    +0.000 OA
ATOM      3  C   UNL     1       5.665  -2.168   0.000  0.00  0.00    +0.000 A 
ATOM      4  C   UNL     1       6.408  -1.736   0.000  0.00  0.00    +0.000 A 
ATOM      5  C   UNL     1       6.398  -0.876   0.000  0.00  0.00    +0.000 A 
ATOM      6  C   UNL     1       5.685  -0.461   0.000  0.00  0.00    +0.000 A 
ATOM      7  C   UNL     1       4.923  -1.736   0.000  0.00  0.00    +0.000 A 
ATOM      8  C   UNL     1       4.933  -0.876   0.000  0.00  0.00    +0.000 A 
ATOM      9  C   UNL     1       6.404   0.774   0.000  0.00  0.00    +0.000 A 
ATOM     10  C   UNL     1       5.688   0.364   0.000  0.00  0.00    +0.000 A 
ATOM     11  C   UNL     1       7.117   0.358   0.000  0.00  0.00    +0.000 A 
ENDROOT
BRANCH  11  14
ATOM     12  O   UNL     1       8.543  -0.472   0.000  0.00  0.00    +0.000 OA
ATOM     13  O   UNL     1       9.981   1.998   0.000  0.00  0.00    +0.000 OA
ATOM     14  C   UNL     1       7.833   0.768   0.000  0.00  0.00    +0.000 A 
ATOM     15  C   UNL     1       8.546   0.353   0.000  0.00  0.00    +0.000 A 
ATOM     16  C   UNL     1       7.836   1.593   0.000  0.00  0.00    +0.000 A 
ATOM     17  C   UNL     1       9.262   0.763   0.000  0.00  0.00    +0.000 A 
ATOM     18  C   UNL     1       8.552   2.003   0.000  0.00  0.00    +0.000 A 
ATOM     19  C   UNL     1       9.265   1.588   0.000  0.00  0.00    +0.000 A 
ENDBRANCH  11  14
BRANCH   3  20
ATOM     20  O   UNL     1       5.665  -2.993   0.000  0.00  0.00    +0.000 OA
BRANCH  20  28
ATOM     21  O   UNL     1       4.236  -2.993   0.000  0.00  0.00    +0.000 OA
ATOM     22  O   UNL     1       4.236  -5.468   0.000  0.00  0.00    +0.000 OA
ATOM     23  O   UNL     1       5.665  -4.643   0.000  0.00  0.00    +0.000 OA
ATOM     24  O   UNL     1       2.808  -4.643   0.000  0.00  0.00    +0.000 OA
ATOM     25  C   UNL     1       4.236  -4.643   0.000  0.00  0.00    +0.000 C 
ATOM     26  C   UNL     1       4.951  -4.231   0.000  0.00  0.00    +0.000 C 
ATOM     27  C   UNL     1       3.522  -4.231   0.000  0.00  0.00    +0.000 C 
ATOM     28  C   UNL     1       4.951  -3.405   0.000  0.00  0.00    +0.000 C 
ATOM     29  C   UNL     1       3.522  -3.405   0.000  0.00  0.00    +0.000 C 
BRANCH  29  32
ATOM     30  O   UNL     1       2.093  -3.405   0.000  0.00  0.00    +0.000 OA
ATOM     31  O   UNL     1       2.808  -2.168   0.000  0.00  0.00    +0.000 OA
ATOM     32  C   UNL     1       2.808  -2.993   0.000  0.00  0.00    +0.000 C 
ENDBRANCH  29  32
ENDBRANCH  20  28
ENDBRANCH   3  20
BRANCH   4  33
ATOM     33  C   UNL     1       7.125  -2.142   0.000  0.00  0.00    +0.000 C 
BRANCH  33  34
ATOM     34  C   UNL     1       7.132  -2.967   0.000  0.00  0.00    +0.000 C 
ATOM     35  C   UNL     1       7.849  -3.374   0.000  0.00  0.00    +0.000 C 
ATOM     36  C   UNL     1       7.856  -4.199   0.000  0.00  0.00    +0.000 C 
ATOM     37  C   UNL     1       8.561  -2.956   0.000  0.00  0.00    +0.000 C 
ENDBRANCH  33  34
ENDBRANCH   4  33
BRANCH   9  38
ATOM     38  C   UNL     1       6.407   1.599   0.000  0.00  0.00    +0.000 C 
BRANCH  38  39
ATOM     39  C   UNL     1       5.695   2.014   0.000  0.00  0.00    +0.000 C 
ATOM     40  C   UNL     1       5.698   2.839   0.000  0.00  0.00    +0.000 C 
ATOM     41  C   UNL     1       4.985   3.254   0.000  0.00  0.00    +0.000 C 
BRANCH  40  43
ATOM     42  O   UNL     1       7.127   2.833   0.000  0.00  0.00    +0.000 OA
ATOM     43  C   UNL     1       6.414   3.249   0.000  0.00  0.00    +0.000 C 
BRANCH  43  44
ATOM     44  C   UNL     1       6.417   4.074   0.000  0.00  0.00    +0.000 C 
BRANCH  44  45
ATOM     45  C   UNL     1       7.133   4.484   0.000  0.00  0.00    +0.000 C 
ATOM     46  C   UNL     1       7.136   5.309   0.000  0.00  0.00    +0.000 C 
ATOM     47  C   UNL     1       7.852   5.718   0.000  0.00  0.00    +0.000 C 
ATOM     48  C   UNL     1       6.423   5.724   0.000  0.00  0.00    +0.000 C 
ENDBRANCH  44  45
ENDBRANCH  43  44
ENDBRANCH  40  43
ENDBRANCH  38  39
ENDBRANCH   9  38
TORSDOF 11
