REMARK  Name = 44258969
REMARK  8 active torsions:
REMARK  status: ('A' for Active; 'I' for Inactive)
REMARK    1  A    between atoms: O_1  and  C_17
REMARK    2  A    between atoms: O_1  and  C_19
REMARK    3  A    between atoms: O_8  and  C_26
REMARK    4  A    between atoms: O_8  and  C_29
REMARK    5  A    between atoms: O_10  and  C_28
REMARK    6  A    between atoms: O_10  and  C_32
REMARK    7  A    between atoms: C_25  and  C_28
REMARK    8  A    between atoms: C_30  and  C_34
REMARK                            x       y       z     vdW  Elec       q    Type
REMARK                         _______ _______ _______ _____ _____    ______ ____
ROOT
ATOM      1  O   UNL     1       5.937   0.078   0.000  0.00  0.00    +0.000 OA
ATOM      2  O   UNL     1       8.080  -1.159   0.000  0.00  0.00    +0.000 OA
ATOM      3  O   UNL     1       8.080   0.491   0.000  0.00  0.00    +0.000 OA
ATOM      4  C   UNL     1       6.651  -1.159   0.000  0.00  0.00    +0.000 C 
ATOM      5  C   UNL     1       7.366  -0.747   0.000  0.00  0.00    +0.000 C 
ATOM      6  C   UNL     1       5.937  -0.747   0.000  0.00  0.00    +0.000 C 
ATOM      7  C   UNL     1       7.366   0.078   0.000  0.00  0.00    +0.000 C 
ATOM      8  C   UNL     1       6.651   0.491   0.000  0.00  0.00    +0.000 C 
ATOM      9  C   UNL     1       5.222  -1.159   0.000  0.00  0.00    +0.000 C 
ENDROOT
BRANCH   4  10
ATOM     10  O   UNL     1       6.651  -1.984   0.000  0.00  0.00    +0.000 OA
BRANCH  10  15
ATOM     11  O   UNL     1       5.222  -1.984   0.000  0.00  0.00    +0.000 OA
ATOM     12  O   UNL     1       6.651  -3.634   0.000  0.00  0.00    +0.000 OA
ATOM     13  O   UNL     1       5.222  -4.459   0.000  0.00  0.00    +0.000 OA
ATOM     14  O   UNL     1       3.793  -3.634   0.000  0.00  0.00    +0.000 OA
ATOM     15  C   UNL     1       5.937  -2.397   0.000  0.00  0.00    +0.000 C 
ATOM     16  C   UNL     1       5.937  -3.222   0.000  0.00  0.00    +0.000 C 
ATOM     17  C   UNL     1       5.222  -3.634   0.000  0.00  0.00    +0.000 C 
ATOM     18  C   UNL     1       4.508  -3.222   0.000  0.00  0.00    +0.000 C 
ATOM     19  C   UNL     1       4.508  -2.397   0.000  0.00  0.00    +0.000 C 
BRANCH  19  20
ATOM     20  C   UNL     1       3.793  -1.984   0.000  0.00  0.00    +0.000 C 
BRANCH  20  21
ATOM     21  O   UNL     1       3.079  -2.397   0.000  0.00  0.00    +0.000 OA
BRANCH  21  23
ATOM     22  O   UNL     1       2.365  -1.159   0.000  0.00  0.00    +0.000 OA
ATOM     23  C   UNL     1       2.365  -1.984   0.000  0.00  0.00    +0.000 C 
ATOM     24  C   UNL     1       1.650  -2.397   0.000  0.00  0.00    +0.000 C 
ENDBRANCH  21  23
ENDBRANCH  20  21
ENDBRANCH  19  20
ENDBRANCH  10  15
ENDBRANCH   4  10
BRANCH   8  25
ATOM     25  O   UNL     1       6.651   1.316   0.000  0.00  0.00    +0.000 OA
BRANCH  25  30
ATOM     26  O   UNL     1       5.222   2.966   0.000  0.00  0.00    +0.000 OA
ATOM     27  O   UNL     1       5.222   0.491   0.000  0.00  0.00    +0.000 OA
ATOM     28  O   UNL     1       3.780   0.462   0.000  0.00  0.00    +0.000 OA
ATOM     29  O   UNL     1       2.310   2.986   0.000  0.00  0.00    +0.000 OA
ATOM     30  C   UNL     1       5.937   1.728   0.000  0.00  0.00    +0.000 A 
ATOM     31  C   UNL     1       5.937   2.553   0.000  0.00  0.00    +0.000 A 
ATOM     32  C   UNL     1       5.222   1.316   0.000  0.00  0.00    +0.000 A 
ATOM     33  C   UNL     1       4.508   1.728   0.000  0.00  0.00    +0.000 A 
ATOM     34  C   UNL     1       4.508   2.553   0.000  0.00  0.00    +0.000 A 
ATOM     35  C   UNL     1       3.770   1.287   0.000  0.00  0.00    +0.000 A 
ATOM     36  C   UNL     1       3.770   2.994   0.000  0.00  0.00    +0.000 A 
ATOM     37  C   UNL     1       3.023   1.711   0.000  0.00  0.00    +0.000 A 
ATOM     38  C   UNL     1       3.023   2.571   0.000  0.00  0.00    +0.000 A 
BRANCH  31  40
ATOM     39  O   UNL     1       8.795   4.203   0.000  0.00  0.00    +0.000 OA
ATOM     40  C   UNL     1       6.651   2.966   0.000  0.00  0.00    +0.000 A 
ATOM     41  C   UNL     1       6.651   3.791   0.000  0.00  0.00    +0.000 A 
ATOM     42  C   UNL     1       7.366   2.553   0.000  0.00  0.00    +0.000 A 
ATOM     43  C   UNL     1       7.366   4.203   0.000  0.00  0.00    +0.000 A 
ATOM     44  C   UNL     1       8.080   2.966   0.000  0.00  0.00    +0.000 A 
ATOM     45  C   UNL     1       8.080   3.791   0.000  0.00  0.00    +0.000 A 
ENDBRANCH  31  40
ENDBRANCH  25  30
ENDBRANCH   8  25
TORSDOF 8
