REMARK  Name = 11756418
REMARK  8 active torsions:
REMARK  status: ('A' for Active; 'I' for Inactive)
REMARK    1  A    between atoms: O_2  and  C_17
REMARK    2  A    between atoms: O_2  and  C_19
REMARK    3  A    between atoms: O_8  and  C_23
REMARK    4  A    between atoms: O_10  and  C_31
REMARK    5  A    between atoms: O_11  and  C_32
REMARK    6  A    between atoms: O_12  and  C_33
REMARK    7  A    between atoms: C_16  and  C_18
REMARK    8  A    between atoms: C_26  and  C_28
REMARK                            x       y       z     vdW  Elec       q    Type
REMARK                         _______ _______ _______ _____ _____    ______ ____
ROOT
ATOM      1  O   UNL     1       7.136   1.379   0.000  0.00  0.00    +0.000 OA
ATOM      2  O   UNL     1       7.108  -1.095   0.000  0.00  0.00    +0.000 OA
ATOM      3  C   UNL     1       5.665  -0.282   0.000  0.00  0.00    +0.000 A 
ATOM      4  C   UNL     1       6.408   0.150   0.000  0.00  0.00    +0.000 A 
ATOM      5  C   UNL     1       4.923   0.150   0.000  0.00  0.00    +0.000 A 
ATOM      6  C   UNL     1       6.417   0.975   0.000  0.00  0.00    +0.000 A 
ATOM      7  C   UNL     1       4.933   1.010   0.000  0.00  0.00    +0.000 A 
ATOM      8  C   UNL     1       7.117  -0.270   0.000  0.00  0.00    +0.000 A 
ATOM      9  C   UNL     1       5.685   1.425   0.000  0.00  0.00    +0.000 A 
ATOM     10  C   UNL     1       7.846   0.959   0.000  0.00  0.00    +0.000 A 
ATOM     11  C   UNL     1       7.837   0.134   0.000  0.00  0.00    +0.000 A 
ENDROOT
BRANCH  10  12
ATOM     12  C   UNL     1       8.565   1.363   0.000  0.00  0.00    +0.000 A 
ATOM     13  C   UNL     1       9.275   0.942   0.000  0.00  0.00    +0.000 A 
ATOM     14  C   UNL     1       8.575   2.188   0.000  0.00  0.00    +0.000 A 
ATOM     15  C   UNL     1       9.294   2.592   0.000  0.00  0.00    +0.000 A 
ATOM     16  C   UNL     1       9.994   1.347   0.000  0.00  0.00    +0.000 A 
ATOM     17  C   UNL     1      10.004   2.171   0.000  0.00  0.00    +0.000 A 
BRANCH  15  18
ATOM     18  O   UNL     1       9.304   3.417   0.000  0.00  0.00    +0.000 OA
ATOM     19  C   UNL     1       8.594   3.838   0.000  0.00  0.00    +0.000 C 
ENDBRANCH  15  18
BRANCH  16  20
ATOM     20  O   UNL     1      10.704   0.926   0.000  0.00  0.00    +0.000 OA
ATOM     21  C   UNL     1      10.694   0.101   0.000  0.00  0.00    +0.000 C 
ENDBRANCH  16  20
BRANCH  17  22
ATOM     22  O   UNL     1      10.723   2.576   0.000  0.00  0.00    +0.000 OA
ATOM     23  C   UNL     1      11.432   2.155   0.000  0.00  0.00    +0.000 C 
ENDBRANCH  17  22
ENDBRANCH  10  12
BRANCH   7  24
ATOM     24  O   UNL     1       4.225   1.433   0.000  0.00  0.00    +0.000 OA
ATOM     25  C   UNL     1       4.237   2.258   0.000  0.00  0.00    +0.000 C 
ENDBRANCH   7  24
BRANCH   3  26
ATOM     26  O   UNL     1       5.665  -1.107   0.000  0.00  0.00    +0.000 OA
BRANCH  26  35
ATOM     27  O   UNL     1       4.236  -1.107   0.000  0.00  0.00    +0.000 OA
ATOM     28  O   UNL     1       4.236  -3.582   0.000  0.00  0.00    +0.000 OA
ATOM     29  O   UNL     1       2.807  -2.757   0.000  0.00  0.00    +0.000 OA
ATOM     30  O   UNL     1       5.665  -2.757   0.000  0.00  0.00    +0.000 OA
ATOM     31  C   UNL     1       4.236  -2.757   0.000  0.00  0.00    +0.000 C 
ATOM     32  C   UNL     1       3.522  -2.345   0.000  0.00  0.00    +0.000 C 
ATOM     33  C   UNL     1       4.951  -2.345   0.000  0.00  0.00    +0.000 C 
ATOM     34  C   UNL     1       3.522  -1.520   0.000  0.00  0.00    +0.000 C 
ATOM     35  C   UNL     1       4.951  -1.520   0.000  0.00  0.00    +0.000 C 
BRANCH  34  37
ATOM     36  O   UNL     1       2.093  -1.520   0.000  0.00  0.00    +0.000 OA
ATOM     37  C   UNL     1       2.807  -1.107   0.000  0.00  0.00    +0.000 C 
ENDBRANCH  34  37
ENDBRANCH  26  35
ENDBRANCH   3  26
TORSDOF 8
