REMARK  Name = 44259124
REMARK  8 active torsions:
REMARK  status: ('A' for Active; 'I' for Inactive)
REMARK    1  A    between atoms: O_2  and  C_15
REMARK    2  A    between atoms: O_2  and  C_22
REMARK    3  A    between atoms: O_3  and  C_19
REMARK    4  A    between atoms: O_3  and  C_21
REMARK    5  A    between atoms: O_6  and  C_20
REMARK    6  A    between atoms: O_6  and  C_27
REMARK    7  A    between atoms: C_18  and  C_20
REMARK    8  A    between atoms: C_23  and  C_29
REMARK                            x       y       z     vdW  Elec       q    Type
REMARK                         _______ _______ _______ _____ _____    ______ ____
ROOT
ATOM      1  O   UNL     1       7.366   1.493   0.000  0.00  0.00    +0.000 OA
ATOM      2  O   UNL     1       5.222   0.255   0.000  0.00  0.00    +0.000 OA
ATOM      3  O   UNL     1       4.476   1.490   0.000  0.00  0.00    +0.000 OA
ATOM      4  O   UNL     1       5.927   4.025   0.000  0.00  0.00    +0.000 OA
ATOM      5  C   UNL     1       6.651   0.255   0.000  0.00  0.00    +0.000 A 
ATOM      6  C   UNL     1       7.366   0.668   0.000  0.00  0.00    +0.000 A 
ATOM      7  C   UNL     1       5.937   0.668   0.000  0.00  0.00    +0.000 A 
ATOM      8  C   UNL     1       5.937   1.493   0.000  0.00  0.00    +0.000 A 
ATOM      9  C   UNL     1       6.651   1.905   0.000  0.00  0.00    +0.000 A 
ATOM     10  C   UNL     1       5.186   1.911   0.000  0.00  0.00    +0.000 A 
ATOM     11  C   UNL     1       6.665   2.764   0.000  0.00  0.00    +0.000 A 
ATOM     12  C   UNL     1       5.179   2.770   0.000  0.00  0.00    +0.000 A 
ATOM     13  C   UNL     1       5.924   3.200   0.000  0.00  0.00    +0.000 A 
ENDROOT
BRANCH   6  16
ATOM     14  O   UNL     1      10.224   0.668   0.000  0.00  0.00    +0.000 OA
ATOM     15  O   UNL     1      10.224  -0.982   0.000  0.00  0.00    +0.000 OA
ATOM     16  C   UNL     1       8.080   0.255   0.000  0.00  0.00    +0.000 A 
ATOM     17  C   UNL     1       8.795   0.668   0.000  0.00  0.00    +0.000 A 
ATOM     18  C   UNL     1       8.080  -0.570   0.000  0.00  0.00    +0.000 A 
ATOM     19  C   UNL     1       9.509   0.255   0.000  0.00  0.00    +0.000 A 
ATOM     20  C   UNL     1       8.795  -0.982   0.000  0.00  0.00    +0.000 A 
ATOM     21  C   UNL     1       9.509  -0.570   0.000  0.00  0.00    +0.000 A 
ENDBRANCH   6  16
BRANCH   5  22
ATOM     22  O   UNL     1       6.651  -0.570   0.000  0.00  0.00    +0.000 OA
BRANCH  22  30
ATOM     23  O   UNL     1       5.222  -0.570   0.000  0.00  0.00    +0.000 OA
ATOM     24  O   UNL     1       3.793  -2.220   0.000  0.00  0.00    +0.000 OA
ATOM     25  O   UNL     1       6.651  -2.220   0.000  0.00  0.00    +0.000 OA
ATOM     26  C   UNL     1       5.222  -2.220   0.000  0.00  0.00    +0.000 C 
ATOM     27  C   UNL     1       4.508  -1.807   0.000  0.00  0.00    +0.000 C 
ATOM     28  C   UNL     1       5.937  -1.807   0.000  0.00  0.00    +0.000 C 
ATOM     29  C   UNL     1       4.508  -0.982   0.000  0.00  0.00    +0.000 C 
ATOM     30  C   UNL     1       5.937  -0.982   0.000  0.00  0.00    +0.000 C 
BRANCH  26  31
ATOM     31  O   UNL     1       5.222  -3.045   0.000  0.00  0.00    +0.000 OA
BRANCH  31  33
ATOM     32  O   UNL     1       3.793  -3.045   0.000  0.00  0.00    +0.000 OA
ATOM     33  C   UNL     1       4.508  -3.457   0.000  0.00  0.00    +0.000 C 
ATOM     34  C   UNL     1       4.508  -4.282   0.000  0.00  0.00    +0.000 C 
ENDBRANCH  31  33
ENDBRANCH  26  31
BRANCH  29  35
ATOM     35  C   UNL     1       3.793  -0.570   0.000  0.00  0.00    +0.000 C 
BRANCH  35  36
ATOM     36  O   UNL     1       3.079  -0.982   0.000  0.00  0.00    +0.000 OA
BRANCH  36  38
ATOM     37  O   UNL     1       2.364   0.255   0.000  0.00  0.00    +0.000 OA
ATOM     38  C   UNL     1       2.364  -0.570   0.000  0.00  0.00    +0.000 C 
ATOM     39  C   UNL     1       1.650  -0.982   0.000  0.00  0.00    +0.000 C 
ENDBRANCH  36  38
ENDBRANCH  35  36
ENDBRANCH  29  35
ENDBRANCH  22  30
ENDBRANCH   5  22
TORSDOF 8
