REMARK  Name = 131837168
REMARK  11 active torsions:
REMARK  status: ('A' for Active; 'I' for Inactive)
REMARK    1  A    between atoms: O_2  and  C_16
REMARK    2  A    between atoms: O_2  and  C_19
REMARK    3  A    between atoms: C_17  and  C_18
REMARK    4  A    between atoms: C_20  and  C_24
REMARK    5  A    between atoms: C_22  and  C_27
REMARK    6  A    between atoms: C_24  and  C_30
REMARK    7  A    between atoms: C_26  and  C_27
REMARK    8  A    between atoms: C_26  and  C_28
REMARK    9  A    between atoms: C_28  and  C_29
REMARK   10  A    between atoms: C_32  and  C_35
REMARK   11  A    between atoms: C_35  and  C_40
REMARK                            x       y       z     vdW  Elec       q    Type
REMARK                         _______ _______ _______ _____ _____    ______ ____
ROOT
ATOM      1  O   UNL     1       4.236   0.491   0.000  0.00  0.00    +0.000 OA
ATOM      2  C   UNL     1       5.665  -1.159   0.000  0.00  0.00    +0.000 A 
ATOM      3  C   UNL     1       6.380  -0.747   0.000  0.00  0.00    +0.000 A 
ATOM      4  C   UNL     1       4.951  -0.747   0.000  0.00  0.00    +0.000 A 
ATOM      5  C   UNL     1       5.665   0.491   0.000  0.00  0.00    +0.000 A 
ATOM      6  C   UNL     1       6.380   0.078   0.000  0.00  0.00    +0.000 A 
ATOM      7  C   UNL     1       4.951   0.078   0.000  0.00  0.00    +0.000 A 
ENDROOT
BRANCH   5   9
ATOM      8  O   UNL     1       4.951   1.728   0.000  0.00  0.00    +0.000 OA
ATOM      9  C   UNL     1       5.665   1.316   0.000  0.00  0.00    +0.000 C 
BRANCH   9  11
ATOM     10  O   UNL     1       7.094   1.316   0.000  0.00  0.00    +0.000 OA
ATOM     11  C   UNL     1       6.380   1.728   0.000  0.00  0.00    +0.000 C 
BRANCH  11  13
ATOM     12  O   UNL     1       5.665   2.966   0.000  0.00  0.00    +0.000 OA
ATOM     13  C   UNL     1       6.380   2.553   0.000  0.00  0.00    +0.000 C 
BRANCH  13  15
ATOM     14  O   UNL     1       9.238   4.203   0.000  0.00  0.00    +0.000 OA
ATOM     15  C   UNL     1       7.094   2.966   0.000  0.00  0.00    +0.000 A 
ATOM     16  C   UNL     1       7.809   2.553   0.000  0.00  0.00    +0.000 A 
ATOM     17  C   UNL     1       8.523   2.966   0.000  0.00  0.00    +0.000 A 
ATOM     18  C   UNL     1       7.094   3.791   0.000  0.00  0.00    +0.000 A 
ATOM     19  C   UNL     1       8.523   3.791   0.000  0.00  0.00    +0.000 A 
ATOM     20  C   UNL     1       7.809   4.203   0.000  0.00  0.00    +0.000 A 
BRANCH  17  21
ATOM     21  C   UNL     1       9.238   2.553   0.000  0.00  0.00    +0.000 C 
BRANCH  21  22
ATOM     22  C   UNL     1       9.952   2.966   0.000  0.00  0.00    +0.000 C 
ATOM     23  C   UNL     1      10.667   2.553   0.000  0.00  0.00    +0.000 C 
ATOM     24  C   UNL     1      11.381   2.966   0.000  0.00  0.00    +0.000 C 
ATOM     25  C   UNL     1      10.667   1.728   0.000  0.00  0.00    +0.000 C 
ENDBRANCH  21  22
ENDBRANCH  17  21
ENDBRANCH  13  15
ENDBRANCH  11  13
ENDBRANCH   9  11
ENDBRANCH   5   9
BRANCH   2  26
ATOM     26  O   UNL     1       5.665  -1.984   0.000  0.00  0.00    +0.000 OA
BRANCH  26  34
ATOM     27  O   UNL     1       4.236  -1.984   0.000  0.00  0.00    +0.000 OA
ATOM     28  O   UNL     1       4.236  -4.459   0.000  0.00  0.00    +0.000 OA
ATOM     29  O   UNL     1       5.665  -3.634   0.000  0.00  0.00    +0.000 OA
ATOM     30  O   UNL     1       2.808  -3.634   0.000  0.00  0.00    +0.000 OA
ATOM     31  C   UNL     1       4.236  -3.634   0.000  0.00  0.00    +0.000 C 
ATOM     32  C   UNL     1       4.951  -3.222   0.000  0.00  0.00    +0.000 C 
ATOM     33  C   UNL     1       3.522  -3.222   0.000  0.00  0.00    +0.000 C 
ATOM     34  C   UNL     1       4.951  -2.397   0.000  0.00  0.00    +0.000 C 
ATOM     35  C   UNL     1       3.522  -2.397   0.000  0.00  0.00    +0.000 C 
BRANCH  35  38
ATOM     36  O   UNL     1       2.093  -2.397   0.000  0.00  0.00    +0.000 OA
ATOM     37  O   UNL     1       2.808  -1.159   0.000  0.00  0.00    +0.000 OA
ATOM     38  C   UNL     1       2.808  -1.984   0.000  0.00  0.00    +0.000 C 
ENDBRANCH  35  38
ENDBRANCH  26  34
ENDBRANCH   2  26
BRANCH   3  39
ATOM     39  C   UNL     1       7.094  -1.159   0.000  0.00  0.00    +0.000 C 
BRANCH  39  40
ATOM     40  C   UNL     1       7.809  -0.747   0.000  0.00  0.00    +0.000 C 
ATOM     41  C   UNL     1       8.523  -1.159   0.000  0.00  0.00    +0.000 C 
ATOM     42  C   UNL     1       9.238  -0.747   0.000  0.00  0.00    +0.000 C 
ATOM     43  C   UNL     1       8.523  -1.984   0.000  0.00  0.00    +0.000 C 
ENDBRANCH  39  40
ENDBRANCH   3  39
TORSDOF 11
