REMARK  Name = 44257965
REMARK  7 active torsions:
REMARK  status: ('A' for Active; 'I' for Inactive)
REMARK    1  A    between atoms: O_5  and  C_20
REMARK    2  A    between atoms: O_5  and  C_27
REMARK    3  A    between atoms: O_12  and  C_40
REMARK    4  A    between atoms: C_17  and  C_19
REMARK    5  A    between atoms: C_18  and  C_20
REMARK    6  A    between atoms: C_27  and  C_30
REMARK    7  A    between atoms: C_29  and  C_31
REMARK                            x       y       z     vdW  Elec       q    Type
REMARK                         _______ _______ _______ _____ _____    ______ ____
ROOT
ATOM      1  O   UNL     1       8.080   0.425   0.000  0.00  0.00    +0.000 OA
ATOM      2  O   UNL     1       8.080   2.900   0.000  0.00  0.00    +0.000 OA
ATOM      3  O   UNL     1       9.509   2.075   0.000  0.00  0.00    +0.000 OA
ATOM      4  O   UNL     1       6.651   2.075   0.000  0.00  0.00    +0.000 OA
ATOM      5  C   UNL     1       8.080   2.075   0.000  0.00  0.00    +0.000 C 
ATOM      6  C   UNL     1       8.795   1.662   0.000  0.00  0.00    +0.000 C 
ATOM      7  C   UNL     1       7.366   1.662   0.000  0.00  0.00    +0.000 C 
ATOM      8  C   UNL     1       8.795   0.837   0.000  0.00  0.00    +0.000 C 
ATOM      9  C   UNL     1       7.366   0.837   0.000  0.00  0.00    +0.000 C 
ENDROOT
BRANCH   8  14
ATOM     10  O   UNL     1      10.224   1.662   0.000  0.00  0.00    +0.000 OA
ATOM     11  O   UNL     1       8.795  -0.813   0.000  0.00  0.00    +0.000 OA
ATOM     12  O   UNL     1      11.676  -0.841   0.000  0.00  0.00    +0.000 OA
ATOM     13  O   UNL     1      11.666   1.691   0.000  0.00  0.00    +0.000 OA
ATOM     14  C   UNL     1       9.509   0.425   0.000  0.00  0.00    +0.000 A 
ATOM     15  C   UNL     1      10.224   0.837   0.000  0.00  0.00    +0.000 A 
ATOM     16  C   UNL     1       9.509  -0.400   0.000  0.00  0.00    +0.000 A 
ATOM     17  C   UNL     1      10.938   0.425   0.000  0.00  0.00    +0.000 A 
ATOM     18  C   UNL     1      10.224  -0.813   0.000  0.00  0.00    +0.000 A 
ATOM     19  C   UNL     1      10.938  -0.400   0.000  0.00  0.00    +0.000 A 
ATOM     20  C   UNL     1      11.676   0.866   0.000  0.00  0.00    +0.000 A 
ATOM     21  C   UNL     1      12.423   0.442   0.000  0.00  0.00    +0.000 A 
ATOM     22  C   UNL     1      12.423  -0.417   0.000  0.00  0.00    +0.000 A 
BRANCH  22  25
ATOM     23  O   UNL     1      13.842  -2.898   0.000  0.00  0.00    +0.000 OA
ATOM     24  O   UNL     1      15.275  -2.079   0.000  0.00  0.00    +0.000 OA
ATOM     25  C   UNL     1      13.136  -0.833   0.000  0.00  0.00    +0.000 A 
ATOM     26  C   UNL     1      13.133  -1.658   0.000  0.00  0.00    +0.000 A 
ATOM     27  C   UNL     1      13.852  -0.423   0.000  0.00  0.00    +0.000 A 
ATOM     28  C   UNL     1      13.846  -2.073   0.000  0.00  0.00    +0.000 A 
ATOM     29  C   UNL     1      14.565  -0.838   0.000  0.00  0.00    +0.000 A 
ATOM     30  C   UNL     1      14.562  -1.663   0.000  0.00  0.00    +0.000 A 
ENDBRANCH  22  25
ENDBRANCH   8  14
BRANCH   9  31
ATOM     31  C   UNL     1       6.651   0.425   0.000  0.00  0.00    +0.000 C 
BRANCH  31  32
ATOM     32  O   UNL     1       5.937   0.837   0.000  0.00  0.00    +0.000 OA
BRANCH  32  34
ATOM     33  O   UNL     1       5.222  -0.400   0.000  0.00  0.00    +0.000 OA
ATOM     34  C   UNL     1       5.222   0.425   0.000  0.00  0.00    +0.000 C 
BRANCH  34  35
ATOM     35  C   UNL     1       4.508   0.837   0.000  0.00  0.00    +0.000 A 
ATOM     36  C   UNL     1       3.793   0.425   0.000  0.00  0.00    +0.000 A 
ATOM     37  C   UNL     1       4.508   1.662   0.000  0.00  0.00    +0.000 A 
ATOM     38  C   UNL     1       3.079   0.837   0.000  0.00  0.00    +0.000 A 
ATOM     39  C   UNL     1       3.793   2.075   0.000  0.00  0.00    +0.000 A 
ATOM     40  C   UNL     1       3.079   1.662   0.000  0.00  0.00    +0.000 A 
BRANCH  40  41
ATOM     41  O   UNL     1       2.364   2.075   0.000  0.00  0.00    +0.000 OA
ATOM     42  C   UNL     1       1.650   1.662   0.000  0.00  0.00    +0.000 C 
ENDBRANCH  40  41
ENDBRANCH  34  35
ENDBRANCH  32  34
ENDBRANCH  31  32
ENDBRANCH   9  31
TORSDOF 7
