REMARK  Name = 131835907
REMARK  11 active torsions:
REMARK  status: ('A' for Active; 'I' for Inactive)
REMARK    1  A    between atoms: O_2  and  C_16
REMARK    2  A    between atoms: O_2  and  C_19
REMARK    3  A    between atoms: C_17  and  C_18
REMARK    4  A    between atoms: C_21  and  C_27
REMARK    5  A    between atoms: C_25  and  C_29
REMARK    6  A    between atoms: C_27  and  C_31
REMARK    7  A    between atoms: C_28  and  C_30
REMARK    8  A    between atoms: C_29  and  C_32
REMARK    9  A    between atoms: C_33  and  C_35
REMARK   10  A    between atoms: C_35  and  C_38
REMARK   11  A    between atoms: C_38  and  C_45
REMARK                            x       y       z     vdW  Elec       q    Type
REMARK                         _______ _______ _______ _____ _____    ______ ____
ROOT
ATOM      1  O   UNL     1       5.688   1.060   0.000  0.00  0.00    +0.000 OA
ATOM      2  O   UNL     1       4.205  -1.446   0.000  0.00  0.00    +0.000 OA
ATOM      3  O   UNL     1       7.827  -0.185   0.000  0.00  0.00    +0.000 OA
ATOM      4  C   UNL     1       5.665  -1.472   0.000  0.00  0.00    +0.000 A 
ATOM      5  C   UNL     1       4.923  -1.039   0.000  0.00  0.00    +0.000 A 
ATOM      6  C   UNL     1       4.933  -0.180   0.000  0.00  0.00    +0.000 A 
ATOM      7  C   UNL     1       6.398  -0.180   0.000  0.00  0.00    +0.000 A 
ATOM      8  C   UNL     1       6.408  -1.039   0.000  0.00  0.00    +0.000 A 
ATOM      9  C   UNL     1       5.685   0.235   0.000  0.00  0.00    +0.000 A 
ATOM     10  C   UNL     1       7.117   1.055   0.000  0.00  0.00    +0.000 A 
ATOM     11  C   UNL     1       7.114   0.230   0.000  0.00  0.00    +0.000 A 
ATOM     12  C   UNL     1       6.404   1.470   0.000  0.00  0.00    +0.000 A 
ENDROOT
BRANCH  12  15
ATOM     13  O   UNL     1       7.836   2.289   0.000  0.00  0.00    +0.000 OA
ATOM     14  O   UNL     1       6.417   4.770   0.000  0.00  0.00    +0.000 OA
ATOM     15  C   UNL     1       6.407   2.295   0.000  0.00  0.00    +0.000 A 
ATOM     16  C   UNL     1       7.123   2.705   0.000  0.00  0.00    +0.000 A 
ATOM     17  C   UNL     1       5.695   2.710   0.000  0.00  0.00    +0.000 A 
ATOM     18  C   UNL     1       7.127   3.530   0.000  0.00  0.00    +0.000 A 
ATOM     19  C   UNL     1       5.698   3.535   0.000  0.00  0.00    +0.000 A 
ATOM     20  C   UNL     1       6.414   3.945   0.000  0.00  0.00    +0.000 A 
ENDBRANCH  12  15
BRANCH   4  21
ATOM     21  O   UNL     1       5.665  -2.297   0.000  0.00  0.00    +0.000 OA
BRANCH  21  29
ATOM     22  O   UNL     1       4.236  -2.297   0.000  0.00  0.00    +0.000 OA
ATOM     23  O   UNL     1       4.236  -4.772   0.000  0.00  0.00    +0.000 OA
ATOM     24  O   UNL     1       5.665  -3.947   0.000  0.00  0.00    +0.000 OA
ATOM     25  O   UNL     1       2.808  -3.947   0.000  0.00  0.00    +0.000 OA
ATOM     26  C   UNL     1       4.236  -3.947   0.000  0.00  0.00    +0.000 C 
ATOM     27  C   UNL     1       4.951  -3.534   0.000  0.00  0.00    +0.000 C 
ATOM     28  C   UNL     1       3.522  -3.534   0.000  0.00  0.00    +0.000 C 
ATOM     29  C   UNL     1       4.951  -2.709   0.000  0.00  0.00    +0.000 C 
ATOM     30  C   UNL     1       3.522  -2.709   0.000  0.00  0.00    +0.000 C 
BRANCH  30  33
ATOM     31  O   UNL     1       2.093  -2.709   0.000  0.00  0.00    +0.000 OA
ATOM     32  O   UNL     1       2.808  -1.472   0.000  0.00  0.00    +0.000 OA
ATOM     33  C   UNL     1       2.808  -2.297   0.000  0.00  0.00    +0.000 C 
ENDBRANCH  30  33
ENDBRANCH  21  29
ENDBRANCH   4  21
BRANCH   6  34
ATOM     34  C   UNL     1       4.225   0.243   0.000  0.00  0.00    +0.000 C 
BRANCH  34  35
ATOM     35  C   UNL     1       4.237   1.068   0.000  0.00  0.00    +0.000 C 
ATOM     36  C   UNL     1       3.529   1.492   0.000  0.00  0.00    +0.000 C 
ATOM     37  C   UNL     1       3.542   2.317   0.000  0.00  0.00    +0.000 C 
ATOM     38  C   UNL     1       2.809   1.091   0.000  0.00  0.00    +0.000 C 
ENDBRANCH  34  35
ENDBRANCH   6  34
BRANCH  10  39
ATOM     39  C   UNL     1       7.833   1.464   0.000  0.00  0.00    +0.000 C 
BRANCH  39  40
ATOM     40  C   UNL     1       8.546   1.049   0.000  0.00  0.00    +0.000 C 
ATOM     41  C   UNL     1       9.262   1.459   0.000  0.00  0.00    +0.000 C 
ATOM     42  C   UNL     1       9.975   1.044   0.000  0.00  0.00    +0.000 C 
BRANCH  41  43
ATOM     43  C   UNL     1       9.265   2.284   0.000  0.00  0.00    +0.000 C 
BRANCH  43  44
ATOM     44  C   UNL     1       9.981   2.694   0.000  0.00  0.00    +0.000 C 
BRANCH  44  45
ATOM     45  C   UNL     1       9.985   3.519   0.000  0.00  0.00    +0.000 C 
ATOM     46  C   UNL     1      10.701   3.929   0.000  0.00  0.00    +0.000 C 
ATOM     47  C   UNL     1      10.704   4.753   0.000  0.00  0.00    +0.000 C 
ATOM     48  C   UNL     1      11.414   3.513   0.000  0.00  0.00    +0.000 C 
ENDBRANCH  44  45
ENDBRANCH  43  44
ENDBRANCH  41  43
ENDBRANCH  39  40
ENDBRANCH  10  39
TORSDOF 11
