REMARK  Name = 131833486
REMARK  6 active torsions:
REMARK  status: ('A' for Active; 'I' for Inactive)
REMARK    1  A    between atoms: S_1  and  O_3
REMARK    2  A    between atoms: O_3  and  C_15
REMARK    3  A    between atoms: O_14  and  C_35
REMARK    4  A    between atoms: C_17  and  C_20
REMARK    5  A    between atoms: C_19  and  C_21
REMARK    6  A    between atoms: C_28  and  C_30
REMARK                            x       y       z     vdW  Elec       q    Type
REMARK                         _______ _______ _______ _____ _____    ______ ____
ROOT
ATOM      1  O   UNL     1       6.380   0.711   0.000  0.00  0.00    +0.000 OA
ATOM      2  O   UNL     1       4.951  -1.764   0.000  0.00  0.00    +0.000 OA
ATOM      3  O   UNL     1       7.832  -1.792   0.000  0.00  0.00    +0.000 OA
ATOM      4  O   UNL     1       7.822   0.740   0.000  0.00  0.00    +0.000 OA
ATOM      5  C   UNL     1       5.665  -0.526   0.000  0.00  0.00    +0.000 A 
ATOM      6  C   UNL     1       6.380  -0.114   0.000  0.00  0.00    +0.000 A 
ATOM      7  C   UNL     1       5.665  -1.351   0.000  0.00  0.00    +0.000 A 
ATOM      8  C   UNL     1       7.094  -0.526   0.000  0.00  0.00    +0.000 A 
ATOM      9  C   UNL     1       6.380  -1.764   0.000  0.00  0.00    +0.000 A 
ATOM     10  C   UNL     1       7.094  -1.351   0.000  0.00  0.00    +0.000 A 
ATOM     11  C   UNL     1       7.832  -0.085   0.000  0.00  0.00    +0.000 A 
ATOM     12  C   UNL     1       8.579  -1.368   0.000  0.00  0.00    +0.000 A 
ATOM     13  C   UNL     1       8.579  -0.509   0.000  0.00  0.00    +0.000 A 
ENDROOT
BRANCH   5  19
ATOM     14  O   UNL     1       4.236  -0.526   0.000  0.00  0.00    +0.000 OA
ATOM     15  O   UNL     1       4.236   1.949   0.000  0.00  0.00    +0.000 OA
ATOM     16  O   UNL     1       2.808   1.124   0.000  0.00  0.00    +0.000 OA
ATOM     17  C   UNL     1       4.951   0.711   0.000  0.00  0.00    +0.000 C 
ATOM     18  C   UNL     1       4.236   1.124   0.000  0.00  0.00    +0.000 C 
ATOM     19  C   UNL     1       4.951  -0.114   0.000  0.00  0.00    +0.000 C 
ATOM     20  C   UNL     1       3.522   0.711   0.000  0.00  0.00    +0.000 C 
ATOM     21  C   UNL     1       3.522  -0.114   0.000  0.00  0.00    +0.000 C 
BRANCH  21  23
ATOM     22  O   UNL     1       2.093  -0.114   0.000  0.00  0.00    +0.000 OA
ATOM     23  C   UNL     1       2.808  -0.526   0.000  0.00  0.00    +0.000 C 
ENDBRANCH  21  23
BRANCH  17  24
ATOM     24  O   UNL     1       5.665   1.124   0.000  0.00  0.00    +0.000 OA
BRANCH  24  25
ATOM     25  S   UNL     1       5.665   1.949   0.000  0.00  0.00    +0.000 S 
ATOM     26  O   UNL     1       5.665   2.774   0.000  0.00  0.00    +0.000 OA
ATOM     27  O   UNL     1       6.490   1.949   0.000  0.00  0.00    +0.000 OA
ATOM     28  O   UNL     1       4.840   1.949   0.000  0.00  0.00    +0.000 OA
ENDBRANCH  24  25
ENDBRANCH  17  24
ENDBRANCH   5  19
BRANCH  12  29
ATOM     29  C   UNL     1       9.292  -1.784   0.000  0.00  0.00    +0.000 A 
ATOM     30  C   UNL     1      10.008  -1.374   0.000  0.00  0.00    +0.000 A 
ATOM     31  C   UNL     1       9.289  -2.609   0.000  0.00  0.00    +0.000 A 
ATOM     32  C   UNL     1      10.721  -1.789   0.000  0.00  0.00    +0.000 A 
ATOM     33  C   UNL     1      10.002  -3.024   0.000  0.00  0.00    +0.000 A 
ATOM     34  C   UNL     1      10.718  -2.614   0.000  0.00  0.00    +0.000 A 
BRANCH  34  35
ATOM     35  O   UNL     1      11.431  -3.030   0.000  0.00  0.00    +0.000 OA
ATOM     36  C   UNL     1      12.147  -2.620   0.000  0.00  0.00    +0.000 C 
ENDBRANCH  34  35
ENDBRANCH  12  29
TORSDOF 6
