REMARK  Name = 42607568
REMARK  9 active torsions:
REMARK  status: ('A' for Active; 'I' for Inactive)
REMARK    1  A    between atoms: O_1  and  C_16
REMARK    2  A    between atoms: O_1  and  C_19
REMARK    3  A    between atoms: O_7  and  C_24
REMARK    4  A    between atoms: O_7  and  C_27
REMARK    5  A    between atoms: C_18  and  C_25
REMARK    6  A    between atoms: C_23  and  C_26
REMARK    7  A    between atoms: C_32  and  C_33
REMARK    8  A    between atoms: C_33  and  C_34
REMARK    9  A    between atoms: C_35  and  C_36
REMARK                            x       y       z     vdW  Elec       q    Type
REMARK                         _______ _______ _______ _____ _____    ______ ____
ROOT
ATOM      1  O   UNL     1       7.649  -1.984   0.000  0.00  0.00    +0.000 OA
ENDROOT
BRANCH   1   9
ATOM      2  O   UNL     1       6.220  -1.984   0.000  0.00  0.00    +0.000 OA
ATOM      3  O   UNL     1       6.220  -4.459   0.000  0.00  0.00    +0.000 OA
ATOM      4  O   UNL     1       7.649  -3.634   0.000  0.00  0.00    +0.000 OA
ATOM      5  C   UNL     1       5.506  -3.222   0.000  0.00  0.00    +0.000 C 
ATOM      6  C   UNL     1       6.220  -3.634   0.000  0.00  0.00    +0.000 C 
ATOM      7  C   UNL     1       5.506  -2.397   0.000  0.00  0.00    +0.000 C 
ATOM      8  C   UNL     1       6.935  -3.222   0.000  0.00  0.00    +0.000 C 
ATOM      9  C   UNL     1       6.935  -2.397   0.000  0.00  0.00    +0.000 C 
BRANCH   7  11
ATOM     10  O   UNL     1       4.791  -1.159   0.000  0.00  0.00    +0.000 OA
ATOM     11  C   UNL     1       4.791  -1.984   0.000  0.00  0.00    +0.000 C 
ENDBRANCH   7  11
BRANCH   5  12
ATOM     12  O   UNL     1       4.791  -3.634   0.000  0.00  0.00    +0.000 OA
BRANCH  12  16
ATOM     13  O   UNL     1       3.991  -2.401   0.000  0.00  0.00    +0.000 OA
ATOM     14  O   UNL     1       3.152  -4.364   0.000  0.00  0.00    +0.000 OA
ATOM     15  O   UNL     1       1.951  -3.030   0.000  0.00  0.00    +0.000 OA
ATOM     16  C   UNL     1       4.077  -3.222   0.000  0.00  0.00    +0.000 C 
ATOM     17  C   UNL     1       3.323  -3.557   0.000  0.00  0.00    +0.000 C 
ATOM     18  C   UNL     1       2.771  -2.944   0.000  0.00  0.00    +0.000 C 
ATOM     19  C   UNL     1       3.184  -2.230   0.000  0.00  0.00    +0.000 C 
BRANCH  19  21
ATOM     20  O   UNL     1       3.333  -0.808   0.000  0.00  0.00    +0.000 OA
ATOM     21  C   UNL     1       2.848  -1.476   0.000  0.00  0.00    +0.000 C 
ENDBRANCH  19  21
ENDBRANCH  12  16
ENDBRANCH   5  12
ENDBRANCH   1   9
BRANCH   1  24
ATOM     22  O   UNL     1       6.220  -1.159   0.000  0.00  0.00    +0.000 OA
ATOM     23  O   UNL     1       6.220   0.491   0.000  0.00  0.00    +0.000 OA
ATOM     24  C   UNL     1       7.649  -1.159   0.000  0.00  0.00    +0.000 A 
ATOM     25  C   UNL     1       6.935  -0.747   0.000  0.00  0.00    +0.000 A 
ATOM     26  C   UNL     1       8.364  -0.747   0.000  0.00  0.00    +0.000 A 
ATOM     27  C   UNL     1       6.935   0.078   0.000  0.00  0.00    +0.000 A 
ATOM     28  C   UNL     1       8.364   0.078   0.000  0.00  0.00    +0.000 A 
ATOM     29  C   UNL     1       7.649   0.491   0.000  0.00  0.00    +0.000 A 
BRANCH  29  31
ATOM     30  O   UNL     1       6.935   1.728   0.000  0.00  0.00    +0.000 OA
ATOM     31  C   UNL     1       7.649   1.316   0.000  0.00  0.00    +0.000 C 
BRANCH  31  32
ATOM     32  C   UNL     1       8.364   1.728   0.000  0.00  0.00    +0.000 C 
ATOM     33  C   UNL     1       8.364   2.553   0.000  0.00  0.00    +0.000 C 
BRANCH  33  36
ATOM     34  O   UNL     1      11.222   2.553   0.000  0.00  0.00    +0.000 OA
ATOM     35  O   UNL     1      11.222   4.203   0.000  0.00  0.00    +0.000 OA
ATOM     36  C   UNL     1       9.078   2.966   0.000  0.00  0.00    +0.000 A 
ATOM     37  C   UNL     1       9.793   2.553   0.000  0.00  0.00    +0.000 A 
ATOM     38  C   UNL     1       9.078   3.791   0.000  0.00  0.00    +0.000 A 
ATOM     39  C   UNL     1      10.507   2.966   0.000  0.00  0.00    +0.000 A 
ATOM     40  C   UNL     1       9.793   4.203   0.000  0.00  0.00    +0.000 A 
ATOM     41  C   UNL     1      10.507   3.791   0.000  0.00  0.00    +0.000 A 
ENDBRANCH  33  36
ENDBRANCH  31  32
ENDBRANCH  29  31
ENDBRANCH   1  24
TORSDOF 9
