REMARK  Name = 44258790
REMARK  10 active torsions:
REMARK  status: ('A' for Active; 'I' for Inactive)
REMARK    1  A    between atoms: O_1  and  C_20
REMARK    2  A    between atoms: O_1  and  C_25
REMARK    3  A    between atoms: O_4  and  C_23
REMARK    4  A    between atoms: O_4  and  C_36
REMARK    5  A    between atoms: O_10  and  C_35
REMARK    6  A    between atoms: O_10  and  C_38
REMARK    7  A    between atoms: C_34  and  C_37
REMARK    8  A    between atoms: C_40  and  C_47
REMARK    9  A    between atoms: C_43  and  C_46
REMARK   10  A    between atoms: C_46  and  C_48
REMARK                            x       y       z     vdW  Elec       q    Type
REMARK                         _______ _______ _______ _____ _____    ______ ____
ROOT
ATOM      1  O   UNL     1       6.389   0.667   0.000  0.00  0.00    +0.000 OA
ATOM      2  O   UNL     1       4.245  -0.570   0.000  0.00  0.00    +0.000 OA
ATOM      3  O   UNL     1       3.499   0.665   0.000  0.00  0.00    +0.000 OA
ATOM      4  C   UNL     1       5.674  -0.570   0.000  0.00  0.00    +0.000 A 
ATOM      5  C   UNL     1       4.947   2.374   0.000  0.00  0.00    +0.000 A 
ATOM      6  C   UNL     1       4.960  -0.158   0.000  0.00  0.00    +0.000 A 
ATOM      7  C   UNL     1       6.389  -0.158   0.000  0.00  0.00    +0.000 A 
ATOM      8  C   UNL     1       4.960   0.667   0.000  0.00  0.00    +0.000 A 
ATOM      9  C   UNL     1       5.674   1.080   0.000  0.00  0.00    +0.000 A 
ATOM     10  C   UNL     1       5.688   1.939   0.000  0.00  0.00    +0.000 A 
ATOM     11  C   UNL     1       4.209   1.085   0.000  0.00  0.00    +0.000 A 
ATOM     12  C   UNL     1       4.202   1.945   0.000  0.00  0.00    +0.000 A 
ENDROOT
BRANCH   7  14
ATOM     13  O   UNL     1       9.247  -1.808   0.000  0.00  0.00    +0.000 OA
ATOM     14  C   UNL     1       7.103  -0.570   0.000  0.00  0.00    +0.000 A 
ATOM     15  C   UNL     1       7.103  -1.395   0.000  0.00  0.00    +0.000 A 
ATOM     16  C   UNL     1       7.818  -0.158   0.000  0.00  0.00    +0.000 A 
ATOM     17  C   UNL     1       7.818  -1.808   0.000  0.00  0.00    +0.000 A 
ATOM     18  C   UNL     1       8.532  -0.570   0.000  0.00  0.00    +0.000 A 
ATOM     19  C   UNL     1       8.532  -1.395   0.000  0.00  0.00    +0.000 A 
ENDBRANCH   7  14
BRANCH   4  20
ATOM     20  O   UNL     1       5.674  -1.395   0.000  0.00  0.00    +0.000 OA
BRANCH  20  27
ATOM     21  O   UNL     1       4.245  -1.395   0.000  0.00  0.00    +0.000 OA
ATOM     22  O   UNL     1       4.245  -3.870   0.000  0.00  0.00    +0.000 OA
ATOM     23  O   UNL     1       2.816  -3.045   0.000  0.00  0.00    +0.000 OA
ATOM     24  C   UNL     1       4.960  -2.633   0.000  0.00  0.00    +0.000 C 
ATOM     25  C   UNL     1       4.245  -3.045   0.000  0.00  0.00    +0.000 C 
ATOM     26  C   UNL     1       3.531  -2.633   0.000  0.00  0.00    +0.000 C 
ATOM     27  C   UNL     1       4.960  -1.808   0.000  0.00  0.00    +0.000 C 
ATOM     28  C   UNL     1       3.531  -1.808   0.000  0.00  0.00    +0.000 C 
ATOM     29  C   UNL     1       2.816  -1.395   0.000  0.00  0.00    +0.000 C 
BRANCH  24  30
ATOM     30  O   UNL     1       5.674  -3.045   0.000  0.00  0.00    +0.000 OA
BRANCH  30  35
ATOM     31  O   UNL     1       4.960  -4.283   0.000  0.00  0.00    +0.000 OA
ATOM     32  O   UNL     1       7.103  -3.870   0.000  0.00  0.00    +0.000 OA
ATOM     33  O   UNL     1       7.103  -5.520   0.000  0.00  0.00    +0.000 OA
ATOM     34  O   UNL     1       5.674  -6.345   0.000  0.00  0.00    +0.000 OA
ATOM     35  C   UNL     1       5.674  -3.870   0.000  0.00  0.00    +0.000 C 
ATOM     36  C   UNL     1       6.389  -4.283   0.000  0.00  0.00    +0.000 C 
ATOM     37  C   UNL     1       6.389  -5.108   0.000  0.00  0.00    +0.000 C 
ATOM     38  C   UNL     1       5.674  -5.520   0.000  0.00  0.00    +0.000 C 
ATOM     39  C   UNL     1       4.960  -5.108   0.000  0.00  0.00    +0.000 C 
ENDBRANCH  30  35
ENDBRANCH  24  30
ENDBRANCH  20  27
ENDBRANCH   4  20
BRANCH   5  40
ATOM     40  O   UNL     1       4.950   3.199   0.000  0.00  0.00    +0.000 OA
BRANCH  40  49
ATOM     41  O   UNL     1       4.240   4.440   0.000  0.00  0.00    +0.000 OA
ATOM     42  O   UNL     1       2.092   3.210   0.000  0.00  0.00    +0.000 OA
ATOM     43  O   UNL     1       2.098   4.860   0.000  0.00  0.00    +0.000 OA
ATOM     44  O   UNL     1       3.518   2.380   0.000  0.00  0.00    +0.000 OA
ATOM     45  C   UNL     1       2.808   3.620   0.000  0.00  0.00    +0.000 C 
ATOM     46  C   UNL     1       2.811   4.445   0.000  0.00  0.00    +0.000 C 
ATOM     47  C   UNL     1       3.521   3.205   0.000  0.00  0.00    +0.000 C 
ATOM     48  C   UNL     1       3.527   4.855   0.000  0.00  0.00    +0.000 C 
ATOM     49  C   UNL     1       4.237   3.615   0.000  0.00  0.00    +0.000 C 
BRANCH  48  51
ATOM     50  O   UNL     1       4.247   6.090   0.000  0.00  0.00    +0.000 OA
ATOM     51  C   UNL     1       3.530   5.680   0.000  0.00  0.00    +0.000 C 
ENDBRANCH  48  51
ENDBRANCH  40  49
ENDBRANCH   5  40
BRANCH  10  52
ATOM     52  C   UNL     1       6.407   2.343   0.000  0.00  0.00    +0.000 C 
BRANCH  52  53
ATOM     53  C   UNL     1       6.416   3.168   0.000  0.00  0.00    +0.000 C 
ATOM     54  C   UNL     1       7.136   3.572   0.000  0.00  0.00    +0.000 C 
ATOM     55  C   UNL     1       7.145   4.397   0.000  0.00  0.00    +0.000 C 
ATOM     56  C   UNL     1       7.845   3.152   0.000  0.00  0.00    +0.000 C 
ENDBRANCH  52  53
ENDBRANCH  10  52
TORSDOF 10
