REMARK  Name = 131831464
REMARK  10 active torsions:
REMARK  status: ('A' for Active; 'I' for Inactive)
REMARK    1  A    between atoms: O_2  and  C_18
REMARK    2  A    between atoms: O_2  and  C_20
REMARK    3  A    between atoms: O_11  and  C_32
REMARK    4  A    between atoms: O_12  and  C_33
REMARK    5  A    between atoms: O_13  and  C_34
REMARK    6  A    between atoms: C_17  and  C_19
REMARK    7  A    between atoms: C_21  and  C_23
REMARK    8  A    between atoms: C_23  and  C_24
REMARK    9  A    between atoms: C_24  and  C_26
REMARK   10  A    between atoms: C_26  and  C_29
REMARK                            x       y       z     vdW  Elec       q    Type
REMARK                         _______ _______ _______ _____ _____    ______ ____
ROOT
ATOM      1  O   UNL     1       7.094   1.984   0.000  0.00  0.00    +0.000 OA
ATOM      2  O   UNL     1       4.237   1.984   0.000  0.00  0.00    +0.000 OA
ATOM      3  C   UNL     1       5.665   0.334   0.000  0.00  0.00    +0.000 A 
ATOM      4  C   UNL     1       6.380   0.747   0.000  0.00  0.00    +0.000 A 
ATOM      5  C   UNL     1       4.951   0.747   0.000  0.00  0.00    +0.000 A 
ATOM      6  C   UNL     1       6.380   1.572   0.000  0.00  0.00    +0.000 A 
ATOM      7  C   UNL     1       4.951   1.572   0.000  0.00  0.00    +0.000 A 
ATOM      8  C   UNL     1       5.665   1.984   0.000  0.00  0.00    +0.000 A 
ENDROOT
BRANCH   4  10
ATOM      9  O   UNL     1       7.094  -0.491   0.000  0.00  0.00    +0.000 OA
ATOM     10  C   UNL     1       7.094   0.334   0.000  0.00  0.00    +0.000 C 
BRANCH  10  11
ATOM     11  C   UNL     1       7.809   0.747   0.000  0.00  0.00    +0.000 C 
BRANCH  11  12
ATOM     12  C   UNL     1       8.523   0.334   0.000  0.00  0.00    +0.000 C 
BRANCH  12  13
ATOM     13  C   UNL     1       9.238   0.747   0.000  0.00  0.00    +0.000 A 
ATOM     14  C   UNL     1       9.952   0.334   0.000  0.00  0.00    +0.000 A 
ATOM     15  C   UNL     1       9.238   1.572   0.000  0.00  0.00    +0.000 A 
ATOM     16  C   UNL     1       9.952   1.984   0.000  0.00  0.00    +0.000 A 
ATOM     17  C   UNL     1      10.667   0.747   0.000  0.00  0.00    +0.000 A 
ATOM     18  C   UNL     1      10.667   1.572   0.000  0.00  0.00    +0.000 A 
BRANCH  16  19
ATOM     19  O   UNL     1       9.952   2.809   0.000  0.00  0.00    +0.000 OA
ATOM     20  C   UNL     1      10.667   3.222   0.000  0.00  0.00    +0.000 C 
ENDBRANCH  16  19
BRANCH  17  21
ATOM     21  O   UNL     1      11.381   0.334   0.000  0.00  0.00    +0.000 OA
ATOM     22  C   UNL     1      11.381  -0.491   0.000  0.00  0.00    +0.000 C 
ENDBRANCH  17  21
BRANCH  18  23
ATOM     23  O   UNL     1      11.381   1.984   0.000  0.00  0.00    +0.000 OA
ATOM     24  C   UNL     1      12.096   1.572   0.000  0.00  0.00    +0.000 C 
ENDBRANCH  18  23
ENDBRANCH  12  13
ENDBRANCH  11  12
ENDBRANCH  10  11
ENDBRANCH   4  10
BRANCH   3  25
ATOM     25  O   UNL     1       5.665  -0.491   0.000  0.00  0.00    +0.000 OA
BRANCH  25  34
ATOM     26  O   UNL     1       4.237  -0.491   0.000  0.00  0.00    +0.000 OA
ATOM     27  O   UNL     1       4.237  -2.966   0.000  0.00  0.00    +0.000 OA
ATOM     28  O   UNL     1       2.808  -2.141   0.000  0.00  0.00    +0.000 OA
ATOM     29  O   UNL     1       5.665  -2.141   0.000  0.00  0.00    +0.000 OA
ATOM     30  C   UNL     1       4.237  -2.141   0.000  0.00  0.00    +0.000 C 
ATOM     31  C   UNL     1       3.522  -1.728   0.000  0.00  0.00    +0.000 C 
ATOM     32  C   UNL     1       4.951  -1.728   0.000  0.00  0.00    +0.000 C 
ATOM     33  C   UNL     1       3.522  -0.903   0.000  0.00  0.00    +0.000 C 
ATOM     34  C   UNL     1       4.951  -0.903   0.000  0.00  0.00    +0.000 C 
BRANCH  33  37
ATOM     35  O   UNL     1       2.093  -0.903   0.000  0.00  0.00    +0.000 OA
ATOM     36  O   UNL     1       2.808   0.334   0.000  0.00  0.00    +0.000 OA
ATOM     37  C   UNL     1       2.808  -0.491   0.000  0.00  0.00    +0.000 C 
ENDBRANCH  33  37
ENDBRANCH  25  34
ENDBRANCH   3  25
TORSDOF 10
