REMARK  Name = 73813318
REMARK  7 active torsions:
REMARK  status: ('A' for Active; 'I' for Inactive)
REMARK    1  A    between atoms: O_3  and  C_22
REMARK    2  A    between atoms: O_3  and  C_32
REMARK    3  A    between atoms: O_4  and  C_26
REMARK    4  A    between atoms: O_4  and  C_36
REMARK    5  A    between atoms: C_20  and  C_31
REMARK    6  A    between atoms: C_25  and  C_33
REMARK    7  A    between atoms: C_27  and  C_35
REMARK                            x       y       z     vdW  Elec       q    Type
REMARK                         _______ _______ _______ _____ _____    ______ ____
ROOT
ATOM      1  O   UNL     1       7.137   1.149   0.000  0.00  0.00    +0.000 OA
ATOM      2  O   UNL     1       8.546  -0.518   0.000  0.00  0.00    +0.000 OA
ATOM      3  O   UNL     1       4.225   1.202   0.000  0.00  0.00    +0.000 OA
ATOM      4  C   UNL     1       7.846   0.728   0.000  0.00  0.00    +0.000 C 
ATOM      5  C   UNL     1       7.837  -0.097   0.000  0.00  0.00    +0.000 C 
ATOM      6  C   UNL     1       7.117  -0.501   0.000  0.00  0.00    +0.000 C 
ATOM      7  C   UNL     1       6.408  -0.081   0.000  0.00  0.00    +0.000 A 
ATOM      8  C   UNL     1       5.665  -0.513   0.000  0.00  0.00    +0.000 A 
ATOM      9  C   UNL     1       6.417   0.744   0.000  0.00  0.00    +0.000 A 
ATOM     10  C   UNL     1       4.923  -0.081   0.000  0.00  0.00    +0.000 A 
ATOM     11  C   UNL     1       5.685   1.194   0.000  0.00  0.00    +0.000 A 
ATOM     12  C   UNL     1       4.933   0.779   0.000  0.00  0.00    +0.000 A 
ENDROOT
BRANCH   4  14
ATOM     13  O   UNL     1      10.723   2.345   0.000  0.00  0.00    +0.000 OA
ATOM     14  C   UNL     1       8.566   1.132   0.000  0.00  0.00    +0.000 A 
ATOM     15  C   UNL     1       9.994   1.116   0.000  0.00  0.00    +0.000 A 
ATOM     16  C   UNL     1       9.275   0.711   0.000  0.00  0.00    +0.000 A 
ATOM     17  C   UNL     1       8.575   1.957   0.000  0.00  0.00    +0.000 A 
ATOM     18  C   UNL     1      10.004   1.940   0.000  0.00  0.00    +0.000 A 
ATOM     19  C   UNL     1       9.294   2.361   0.000  0.00  0.00    +0.000 A 
BRANCH  15  20
ATOM     20  O   UNL     1      10.704   0.695   0.000  0.00  0.00    +0.000 OA
BRANCH  20  29
ATOM     21  O   UNL     1      11.433   1.924   0.000  0.00  0.00    +0.000 OA
ATOM     22  O   UNL     1      13.562   0.662   0.000  0.00  0.00    +0.000 OA
ATOM     23  O   UNL     1      13.581   2.312   0.000  0.00  0.00    +0.000 OA
ATOM     24  O   UNL     1      12.123  -0.147   0.000  0.00  0.00    +0.000 OA
ATOM     25  C   UNL     1      12.852   1.083   0.000  0.00  0.00    +0.000 C 
ATOM     26  C   UNL     1      12.861   1.907   0.000  0.00  0.00    +0.000 C 
ATOM     27  C   UNL     1      12.133   0.678   0.000  0.00  0.00    +0.000 C 
ATOM     28  C   UNL     1      12.152   2.328   0.000  0.00  0.00    +0.000 C 
ATOM     29  C   UNL     1      11.423   1.099   0.000  0.00  0.00    +0.000 C 
BRANCH  28  31
ATOM     30  O   UNL     1      12.881   3.557   0.000  0.00  0.00    +0.000 OA
ATOM     31  C   UNL     1      12.161   3.153   0.000  0.00  0.00    +0.000 C 
ENDBRANCH  28  31
ENDBRANCH  20  29
ENDBRANCH  15  20
ENDBRANCH   4  14
BRANCH   8  32
ATOM     32  O   UNL     1       5.665  -1.338   0.000  0.00  0.00    +0.000 OA
BRANCH  32  41
ATOM     33  O   UNL     1       4.236  -1.338   0.000  0.00  0.00    +0.000 OA
ATOM     34  O   UNL     1       4.236  -3.813   0.000  0.00  0.00    +0.000 OA
ATOM     35  O   UNL     1       2.808  -2.988   0.000  0.00  0.00    +0.000 OA
ATOM     36  O   UNL     1       5.665  -2.988   0.000  0.00  0.00    +0.000 OA
ATOM     37  C   UNL     1       4.236  -2.988   0.000  0.00  0.00    +0.000 C 
ATOM     38  C   UNL     1       3.522  -2.576   0.000  0.00  0.00    +0.000 C 
ATOM     39  C   UNL     1       4.951  -2.576   0.000  0.00  0.00    +0.000 C 
ATOM     40  C   UNL     1       3.522  -1.751   0.000  0.00  0.00    +0.000 C 
ATOM     41  C   UNL     1       4.951  -1.751   0.000  0.00  0.00    +0.000 C 
BRANCH  40  43
ATOM     42  O   UNL     1       2.093  -1.751   0.000  0.00  0.00    +0.000 OA
ATOM     43  C   UNL     1       2.808  -1.338   0.000  0.00  0.00    +0.000 C 
ENDBRANCH  40  43
ENDBRANCH  32  41
ENDBRANCH   8  32
TORSDOF 7
