REMARK  Name = 131833070
REMARK  6 active torsions:
REMARK  status: ('A' for Active; 'I' for Inactive)
REMARK    1  A    between atoms: O_7  and  C_36
REMARK    2  A    between atoms: O_7  and  C_40
REMARK    3  A    between atoms: C_19  and  C_24
REMARK    4  A    between atoms: C_23  and  C_30
REMARK    5  A    between atoms: C_26  and  C_37
REMARK    6  A    between atoms: C_38  and  C_42
REMARK                            x       y       z     vdW  Elec       q    Type
REMARK                         _______ _______ _______ _____ _____    ______ ____
ROOT
ATOM      1  O   UNL     1       6.655   0.200   0.000  0.00  0.00    +0.000 OA
ATOM      2  O   UNL     1       7.404   2.311   0.000  0.00  0.00    +0.000 OA
ATOM      3  O   UNL     1       9.549   0.183   0.000  0.00  0.00    +0.000 OA
ATOM      4  O   UNL     1       8.110  -2.287   0.000  0.00  0.00    +0.000 OA
ATOM      5  C   UNL     1       8.829  -1.052   0.000  0.00  0.00    +0.000 A 
ATOM      6  C   UNL     1       8.120   0.188   0.000  0.00  0.00    +0.000 A 
ATOM      7  C   UNL     1       6.651   1.059   0.000  0.00  0.00    +0.000 C 
ATOM      8  C   UNL     1       7.397   1.486   0.000  0.00  0.00    +0.000 C 
ATOM      9  C   UNL     1       8.136   1.048   0.000  0.00  0.00    +0.000 C 
ATOM     10  C   UNL     1       8.833  -0.227   0.000  0.00  0.00    +0.000 A 
ATOM     11  C   UNL     1       7.404  -0.221   0.000  0.00  0.00    +0.000 A 
ATOM     12  C   UNL     1       8.114  -1.462   0.000  0.00  0.00    +0.000 A 
ATOM     13  C   UNL     1       7.401  -1.046   0.000  0.00  0.00    +0.000 A 
ENDROOT
BRANCH   5  18
ATOM     14  O   UNL     1      10.258  -1.057   0.000  0.00  0.00    +0.000 OA
ATOM     15  O   UNL     1       8.823  -2.702   0.000  0.00  0.00    +0.000 OA
ATOM     16  O   UNL     1      10.249  -3.532   0.000  0.00  0.00    +0.000 OA
ATOM     17  O   UNL     1      11.681  -2.713   0.000  0.00  0.00    +0.000 OA
ATOM     18  C   UNL     1       9.542  -1.467   0.000  0.00  0.00    +0.000 C 
ATOM     19  C   UNL     1       9.539  -2.292   0.000  0.00  0.00    +0.000 C 
ATOM     20  C   UNL     1      10.252  -2.707   0.000  0.00  0.00    +0.000 C 
ATOM     21  C   UNL     1      10.968  -2.298   0.000  0.00  0.00    +0.000 C 
ATOM     22  C   UNL     1      10.971  -1.473   0.000  0.00  0.00    +0.000 C 
BRANCH  22  24
ATOM     23  O   UNL     1      12.400  -1.478   0.000  0.00  0.00    +0.000 OA
ATOM     24  C   UNL     1      11.687  -1.063   0.000  0.00  0.00    +0.000 C 
ENDBRANCH  22  24
ENDBRANCH   5  18
BRANCH   7  27
ATOM     25  O   UNL     1       5.222   3.534   0.000  0.00  0.00    +0.000 OA
ATOM     26  O   UNL     1       3.793   2.709   0.000  0.00  0.00    +0.000 OA
ATOM     27  C   UNL     1       5.937   1.472   0.000  0.00  0.00    +0.000 A 
ATOM     28  C   UNL     1       5.222   1.059   0.000  0.00  0.00    +0.000 A 
ATOM     29  C   UNL     1       5.937   2.297   0.000  0.00  0.00    +0.000 A 
ATOM     30  C   UNL     1       4.508   1.472   0.000  0.00  0.00    +0.000 A 
ATOM     31  C   UNL     1       5.222   2.709   0.000  0.00  0.00    +0.000 A 
ATOM     32  C   UNL     1       4.508   2.297   0.000  0.00  0.00    +0.000 A 
BRANCH  28  33
ATOM     33  O   UNL     1       5.222   0.234   0.000  0.00  0.00    +0.000 OA
BRANCH  33  41
ATOM     34  O   UNL     1       3.793   0.234   0.000  0.00  0.00    +0.000 OA
ATOM     35  O   UNL     1       3.793  -2.241   0.000  0.00  0.00    +0.000 OA
ATOM     36  O   UNL     1       5.222  -1.416   0.000  0.00  0.00    +0.000 OA
ATOM     37  O   UNL     1       2.364  -1.416   0.000  0.00  0.00    +0.000 OA
ATOM     38  C   UNL     1       3.793  -1.416   0.000  0.00  0.00    +0.000 C 
ATOM     39  C   UNL     1       4.508  -1.003   0.000  0.00  0.00    +0.000 C 
ATOM     40  C   UNL     1       3.079  -1.003   0.000  0.00  0.00    +0.000 C 
ATOM     41  C   UNL     1       4.508  -0.178   0.000  0.00  0.00    +0.000 C 
ATOM     42  C   UNL     1       3.079  -0.178   0.000  0.00  0.00    +0.000 C 
BRANCH  42  45
ATOM     43  O   UNL     1       1.650  -0.178   0.000  0.00  0.00    +0.000 OA
ATOM     44  O   UNL     1       2.364   1.059   0.000  0.00  0.00    +0.000 OA
ATOM     45  C   UNL     1       2.364   0.234   0.000  0.00  0.00    +0.000 C 
ENDBRANCH  42  45
ENDBRANCH  33  41
ENDBRANCH  28  33
ENDBRANCH   7  27
TORSDOF 6
