REMARK  Name = 44259575
REMARK  5 active torsions:
REMARK  status: ('A' for Active; 'I' for Inactive)
REMARK    1  A    between atoms: S_1  and  O_3
REMARK    2  A    between atoms: O_3  and  C_14
REMARK    3  A    between atoms: O_4  and  C_19
REMARK    4  A    between atoms: O_7  and  C_25
REMARK    5  A    between atoms: C_13  and  C_16
REMARK                            x       y       z     vdW  Elec       q    Type
REMARK                         _______ _______ _______ _____ _____    ______ ____
ROOT
ATOM      1  O   UNL     1       5.278  -0.747   0.000  0.00  0.00    +0.000 OA
ATOM      2  O   UNL     1       3.836   1.757   0.000  0.00  0.00    +0.000 OA
ATOM      3  O   UNL     1       5.278   1.728   0.000  0.00  0.00    +0.000 OA
ATOM      4  C   UNL     1       4.564   0.491   0.000  0.00  0.00    +0.000 A 
ATOM      5  C   UNL     1       4.564  -0.334   0.000  0.00  0.00    +0.000 A 
ATOM      6  C   UNL     1       5.993  -0.334   0.000  0.00  0.00    +0.000 A 
ATOM      7  C   UNL     1       5.993   0.491   0.000  0.00  0.00    +0.000 A 
ATOM      8  C   UNL     1       5.278   0.903   0.000  0.00  0.00    +0.000 A 
ATOM      9  C   UNL     1       3.826   0.932   0.000  0.00  0.00    +0.000 A 
ATOM     10  C   UNL     1       3.826  -0.775   0.000  0.00  0.00    +0.000 A 
ATOM     11  C   UNL     1       3.079  -0.351   0.000  0.00  0.00    +0.000 A 
ATOM     12  C   UNL     1       3.079   0.508   0.000  0.00  0.00    +0.000 A 
ENDROOT
BRANCH   6  13
ATOM     13  C   UNL     1       6.707  -0.747   0.000  0.00  0.00    +0.000 A 
ATOM     14  C   UNL     1       7.422  -0.334   0.000  0.00  0.00    +0.000 A 
ATOM     15  C   UNL     1       6.707  -1.572   0.000  0.00  0.00    +0.000 A 
ATOM     16  C   UNL     1       8.136  -0.747   0.000  0.00  0.00    +0.000 A 
ATOM     17  C   UNL     1       7.422  -1.984   0.000  0.00  0.00    +0.000 A 
ATOM     18  C   UNL     1       8.136  -1.572   0.000  0.00  0.00    +0.000 A 
BRANCH  18  19
ATOM     19  O   UNL     1       8.851  -1.984   0.000  0.00  0.00    +0.000 OA
ATOM     20  C   UNL     1       8.851  -2.809   0.000  0.00  0.00    +0.000 C 
ENDBRANCH  18  19
ENDBRANCH   6  13
BRANCH  11  21
ATOM     21  O   UNL     1       2.366  -0.767   0.000  0.00  0.00    +0.000 OA
ATOM     22  C   UNL     1       1.650  -0.357   0.000  0.00  0.00    +0.000 C 
ENDBRANCH  11  21
BRANCH   7  23
ATOM     23  O   UNL     1       6.707   0.903   0.000  0.00  0.00    +0.000 OA
BRANCH  23  24
ATOM     24  S   UNL     1       6.707   1.728   0.000  0.00  0.00    +0.000 S 
ATOM     25  O   UNL     1       6.707   2.553   0.000  0.00  0.00    +0.000 OA
ATOM     26  O   UNL     1       7.532   1.728   0.000  0.00  0.00    +0.000 OA
ATOM     27  O   UNL     1       5.882   1.728   0.000  0.00  0.00    +0.000 OA
ENDBRANCH  23  24
ENDBRANCH   7  23
TORSDOF 5
