REMARK  Name = 131831437
REMARK  6 active torsions:
REMARK  status: ('A' for Active; 'I' for Inactive)
REMARK    1  A    between atoms: O_2  and  C_18
REMARK    2  A    between atoms: O_2  and  C_26
REMARK    3  A    between atoms: O_12  and  C_41
REMARK    4  A    between atoms: C_19  and  C_31
REMARK    5  A    between atoms: C_21  and  C_32
REMARK    6  A    between atoms: C_27  and  C_33
REMARK                            x       y       z     vdW  Elec       q    Type
REMARK                         _______ _______ _______ _____ _____    ______ ____
ROOT
ATOM      1  O   UNL     1       4.963   0.748   0.000  0.00  0.00    +0.000 OA
ATOM      2  O   UNL     1       7.880   0.771   0.000  0.00  0.00    +0.000 OA
ATOM      3  O   UNL     1       5.704   2.862   0.000  0.00  0.00    +0.000 OA
ATOM      4  O   UNL     1       9.340   0.762   0.000  0.00  0.00    +0.000 OA
ATOM      5  C   UNL     1       7.143  -0.495   0.000  0.00  0.00    +0.000 A 
ATOM      6  C   UNL     1       7.880  -0.936   0.000  0.00  0.00    +0.000 C 
ATOM      7  C   UNL     1       6.428   0.742   0.000  0.00  0.00    +0.000 A 
ATOM      8  C   UNL     1       6.441   1.602   0.000  0.00  0.00    +0.000 C 
ATOM      9  C   UNL     1       7.143   0.330   0.000  0.00  0.00    +0.000 A 
ATOM     10  C   UNL     1       5.700   2.037   0.000  0.00  0.00    +0.000 C 
ATOM     11  C   UNL     1       6.428  -0.908   0.000  0.00  0.00    +0.000 A 
ATOM     12  C   UNL     1       4.956   1.607   0.000  0.00  0.00    +0.000 C 
ATOM     13  C   UNL     1       5.714   0.330   0.000  0.00  0.00    +0.000 A 
ATOM     14  C   UNL     1       8.627  -0.512   0.000  0.00  0.00    +0.000 C 
ATOM     15  C   UNL     1       5.714  -0.495   0.000  0.00  0.00    +0.000 A 
ATOM     16  C   UNL     1       8.627   0.347   0.000  0.00  0.00    +0.000 C 
ENDROOT
BRANCH   6  19
ATOM     17  O   UNL     1       9.280  -3.428   0.000  0.00  0.00    +0.000 OA
ATOM     18  O   UNL     1       7.842  -4.236   0.000  0.00  0.00    +0.000 OA
ATOM     19  C   UNL     1       7.870  -1.761   0.000  0.00  0.00    +0.000 A 
ATOM     20  C   UNL     1       8.580  -2.182   0.000  0.00  0.00    +0.000 A 
ATOM     21  C   UNL     1       7.151  -2.165   0.000  0.00  0.00    +0.000 A 
ATOM     22  C   UNL     1       8.571  -3.007   0.000  0.00  0.00    +0.000 A 
ATOM     23  C   UNL     1       7.142  -2.990   0.000  0.00  0.00    +0.000 A 
ATOM     24  C   UNL     1       7.851  -3.411   0.000  0.00  0.00    +0.000 A 
ENDBRANCH   6  19
BRANCH  12  26
ATOM     25  O   UNL     1       2.092   3.246   0.000  0.00  0.00    +0.000 OA
ATOM     26  C   UNL     1       4.240   2.017   0.000  0.00  0.00    +0.000 A 
ATOM     27  C   UNL     1       4.237   2.842   0.000  0.00  0.00    +0.000 A 
ATOM     28  C   UNL     1       3.527   1.602   0.000  0.00  0.00    +0.000 A 
ATOM     29  C   UNL     1       3.521   3.252   0.000  0.00  0.00    +0.000 A 
ATOM     30  C   UNL     1       2.811   2.012   0.000  0.00  0.00    +0.000 A 
ATOM     31  C   UNL     1       2.808   2.837   0.000  0.00  0.00    +0.000 A 
BRANCH  29  32
ATOM     32  O   UNL     1       3.518   4.077   0.000  0.00  0.00    +0.000 OA
ATOM     33  C   UNL     1       2.802   4.487   0.000  0.00  0.00    +0.000 C 
ENDBRANCH  29  32
ENDBRANCH  12  26
BRANCH  11  34
ATOM     34  O   UNL     1       6.428  -1.733   0.000  0.00  0.00    +0.000 OA
BRANCH  34  42
ATOM     35  O   UNL     1       4.999  -1.733   0.000  0.00  0.00    +0.000 OA
ATOM     36  O   UNL     1       4.999  -4.208   0.000  0.00  0.00    +0.000 OA
ATOM     37  O   UNL     1       6.428  -3.383   0.000  0.00  0.00    +0.000 OA
ATOM     38  O   UNL     1       3.570  -3.383   0.000  0.00  0.00    +0.000 OA
ATOM     39  C   UNL     1       4.999  -3.383   0.000  0.00  0.00    +0.000 C 
ATOM     40  C   UNL     1       5.714  -2.970   0.000  0.00  0.00    +0.000 C 
ATOM     41  C   UNL     1       4.285  -2.970   0.000  0.00  0.00    +0.000 C 
ATOM     42  C   UNL     1       5.714  -2.145   0.000  0.00  0.00    +0.000 C 
ATOM     43  C   UNL     1       4.285  -2.145   0.000  0.00  0.00    +0.000 C 
BRANCH  43  45
ATOM     44  O   UNL     1       2.856  -2.145   0.000  0.00  0.00    +0.000 OA
ATOM     45  C   UNL     1       3.570  -1.733   0.000  0.00  0.00    +0.000 C 
ENDBRANCH  43  45
ENDBRANCH  34  42
ENDBRANCH  11  34
TORSDOF 6
