REMARK  Name = 44258245
REMARK  9 active torsions:
REMARK  status: ('A' for Active; 'I' for Inactive)
REMARK    1  A    between atoms: O_1  and  C_17
REMARK    2  A    between atoms: O_1  and  C_20
REMARK    3  A    between atoms: O_4  and  C_21
REMARK    4  A    between atoms: O_4  and  C_29
REMARK    5  A    between atoms: C_22  and  C_27
REMARK    6  A    between atoms: C_34  and  C_35
REMARK    7  A    between atoms: C_35  and  C_36
REMARK    8  A    between atoms: C_36  and  C_40
REMARK    9  A    between atoms: C_38  and  C_41
REMARK                            x       y       z     vdW  Elec       q    Type
REMARK                         _______ _______ _______ _____ _____    ______ ____
ROOT
ATOM      1  O   UNL     1       7.136   2.697   0.000  0.00  0.00    +0.000 OA
ATOM      2  O   UNL     1       7.108   0.222   0.000  0.00  0.00    +0.000 OA
ATOM      3  O   UNL     1       4.225   2.751   0.000  0.00  0.00    +0.000 OA
ATOM      4  C   UNL     1       5.665   1.035   0.000  0.00  0.00    +0.000 A 
ATOM      5  C   UNL     1       6.408   1.468   0.000  0.00  0.00    +0.000 A 
ATOM      6  C   UNL     1       4.923   1.468   0.000  0.00  0.00    +0.000 A 
ATOM      7  C   UNL     1       6.417   2.293   0.000  0.00  0.00    +0.000 A 
ATOM      8  C   UNL     1       7.117   1.047   0.000  0.00  0.00    +0.000 A 
ATOM      9  C   UNL     1       7.837   1.451   0.000  0.00  0.00    +0.000 A 
ATOM     10  C   UNL     1       4.933   2.327   0.000  0.00  0.00    +0.000 A 
ATOM     11  C   UNL     1       7.846   2.276   0.000  0.00  0.00    +0.000 A 
ATOM     12  C   UNL     1       5.685   2.742   0.000  0.00  0.00    +0.000 A 
ENDROOT
BRANCH  11  16
ATOM     13  O   UNL     1       9.304   4.734   0.000  0.00  0.00    +0.000 OA
ATOM     14  O   UNL     1      10.704   2.243   0.000  0.00  0.00    +0.000 OA
ATOM     15  O   UNL     1      10.723   3.893   0.000  0.00  0.00    +0.000 OA
ATOM     16  C   UNL     1       8.565   2.680   0.000  0.00  0.00    +0.000 A 
ATOM     17  C   UNL     1       9.275   2.260   0.000  0.00  0.00    +0.000 A 
ATOM     18  C   UNL     1       8.575   3.505   0.000  0.00  0.00    +0.000 A 
ATOM     19  C   UNL     1       9.294   3.910   0.000  0.00  0.00    +0.000 A 
ATOM     20  C   UNL     1       9.994   2.664   0.000  0.00  0.00    +0.000 A 
ATOM     21  C   UNL     1      10.004   3.489   0.000  0.00  0.00    +0.000 A 
ENDBRANCH  11  16
BRANCH   4  22
ATOM     22  O   UNL     1       5.665   0.210   0.000  0.00  0.00    +0.000 OA
BRANCH  22  29
ATOM     23  O   UNL     1       4.236   0.210   0.000  0.00  0.00    +0.000 OA
ATOM     24  O   UNL     1       4.236  -2.265   0.000  0.00  0.00    +0.000 OA
ATOM     25  O   UNL     1       2.807  -1.440   0.000  0.00  0.00    +0.000 OA
ATOM     26  C   UNL     1       4.951  -1.027   0.000  0.00  0.00    +0.000 C 
ATOM     27  C   UNL     1       4.236  -1.440   0.000  0.00  0.00    +0.000 C 
ATOM     28  C   UNL     1       3.522  -1.027   0.000  0.00  0.00    +0.000 C 
ATOM     29  C   UNL     1       4.951  -0.202   0.000  0.00  0.00    +0.000 C 
ATOM     30  C   UNL     1       3.522  -0.202   0.000  0.00  0.00    +0.000 C 
BRANCH  30  32
ATOM     31  O   UNL     1       2.093  -0.202   0.000  0.00  0.00    +0.000 OA
ATOM     32  C   UNL     1       2.807   0.210   0.000  0.00  0.00    +0.000 C 
ENDBRANCH  30  32
BRANCH  26  33
ATOM     33  O   UNL     1       5.665  -1.440   0.000  0.00  0.00    +0.000 OA
BRANCH  33  38
ATOM     34  O   UNL     1       4.951  -2.677   0.000  0.00  0.00    +0.000 OA
ATOM     35  O   UNL     1       7.094  -2.265   0.000  0.00  0.00    +0.000 OA
ATOM     36  O   UNL     1       7.094  -3.915   0.000  0.00  0.00    +0.000 OA
ATOM     37  O   UNL     1       5.665  -4.740   0.000  0.00  0.00    +0.000 OA
ATOM     38  C   UNL     1       5.665  -2.265   0.000  0.00  0.00    +0.000 C 
ATOM     39  C   UNL     1       6.380  -2.677   0.000  0.00  0.00    +0.000 C 
ATOM     40  C   UNL     1       6.380  -3.502   0.000  0.00  0.00    +0.000 C 
ATOM     41  C   UNL     1       5.665  -3.915   0.000  0.00  0.00    +0.000 C 
ATOM     42  C   UNL     1       4.951  -3.502   0.000  0.00  0.00    +0.000 C 
ATOM     43  C   UNL     1       4.236  -3.915   0.000  0.00  0.00    +0.000 C 
ENDBRANCH  33  38
ENDBRANCH  26  33
ENDBRANCH  22  29
ENDBRANCH   4  22
BRANCH   9  44
ATOM     44  C   UNL     1       8.546   1.031   0.000  0.00  0.00    +0.000 C 
BRANCH  44  45
ATOM     45  C   UNL     1       9.265   1.435   0.000  0.00  0.00    +0.000 C 
BRANCH  45  46
ATOM     46  C   UNL     1       9.975   1.014   0.000  0.00  0.00    +0.000 C 
ATOM     47  C   UNL     1       9.966   0.189   0.000  0.00  0.00    +0.000 C 
ATOM     48  C   UNL     1      10.694   1.418   0.000  0.00  0.00    +0.000 C 
ENDBRANCH  45  46
ENDBRANCH  44  45
ENDBRANCH   9  44
TORSDOF 9
