REMARK  Name = 42607579
REMARK  13 active torsions:
REMARK  status: ('A' for Active; 'I' for Inactive)
REMARK    1  A    between atoms: O_2  and  C_18
REMARK    2  A    between atoms: O_2  and  C_23
REMARK    3  A    between atoms: O_5  and  C_20
REMARK    4  A    between atoms: O_5  and  C_22
REMARK    5  A    between atoms: O_6  and  C_21
REMARK    6  A    between atoms: O_6  and  C_26
REMARK    7  A    between atoms: O_14  and  C_47
REMARK    8  A    between atoms: C_19  and  C_21
REMARK    9  A    between atoms: C_23  and  C_27
REMARK   10  A    between atoms: C_30  and  C_33
REMARK   11  A    between atoms: C_32  and  C_34
REMARK   12  A    between atoms: C_33  and  C_35
REMARK   13  A    between atoms: C_38  and  C_42
REMARK                            x       y       z     vdW  Elec       q    Type
REMARK                         _______ _______ _______ _____ _____    ______ ____
ROOT
ATOM      1  O   UNL     1       5.222  -0.285   0.000  0.00  0.00    +0.000 OA
ATOM      2  O   UNL     1       5.222  -2.760   0.000  0.00  0.00    +0.000 OA
ATOM      3  O   UNL     1       3.793  -1.935   0.000  0.00  0.00    +0.000 OA
ATOM      4  C   UNL     1       5.222  -1.935   0.000  0.00  0.00    +0.000 C 
ATOM      5  C   UNL     1       4.508  -1.522   0.000  0.00  0.00    +0.000 C 
ATOM      6  C   UNL     1       5.937  -1.522   0.000  0.00  0.00    +0.000 C 
ATOM      7  C   UNL     1       4.508  -0.697   0.000  0.00  0.00    +0.000 C 
ATOM      8  C   UNL     1       5.937  -0.697   0.000  0.00  0.00    +0.000 C 
ENDROOT
BRANCH   6   9
ATOM      9  O   UNL     1       6.651  -1.935   0.000  0.00  0.00    +0.000 OA
BRANCH   9  11
ATOM     10  O   UNL     1       5.937  -3.172   0.000  0.00  0.00    +0.000 OA
ATOM     11  C   UNL     1       6.651  -2.760   0.000  0.00  0.00    +0.000 C 
BRANCH  11  12
ATOM     12  C   UNL     1       7.366  -3.172   0.000  0.00  0.00    +0.000 C 
ATOM     13  C   UNL     1       7.366  -3.997   0.000  0.00  0.00    +0.000 C 
BRANCH  13  16
ATOM     14  O   UNL     1       8.795  -6.472   0.000  0.00  0.00    +0.000 OA
ATOM     15  O   UNL     1      10.224  -5.647   0.000  0.00  0.00    +0.000 OA
ATOM     16  C   UNL     1       8.080  -4.410   0.000  0.00  0.00    +0.000 A 
ATOM     17  C   UNL     1       8.080  -5.235   0.000  0.00  0.00    +0.000 A 
ATOM     18  C   UNL     1       8.795  -3.997   0.000  0.00  0.00    +0.000 A 
ATOM     19  C   UNL     1       8.795  -5.647   0.000  0.00  0.00    +0.000 A 
ATOM     20  C   UNL     1       9.509  -4.410   0.000  0.00  0.00    +0.000 A 
ATOM     21  C   UNL     1       9.509  -5.235   0.000  0.00  0.00    +0.000 A 
ENDBRANCH  13  16
ENDBRANCH  11  12
ENDBRANCH   9  11
ENDBRANCH   6   9
BRANCH   8  22
ATOM     22  O   UNL     1       6.651  -0.285   0.000  0.00  0.00    +0.000 OA
BRANCH  22  25
ATOM     23  O   UNL     1       5.222   0.540   0.000  0.00  0.00    +0.000 OA
ATOM     24  O   UNL     1       5.222   2.190   0.000  0.00  0.00    +0.000 OA
ATOM     25  C   UNL     1       6.651   0.540   0.000  0.00  0.00    +0.000 A 
ATOM     26  C   UNL     1       5.937   0.953   0.000  0.00  0.00    +0.000 A 
ATOM     27  C   UNL     1       7.366   0.953   0.000  0.00  0.00    +0.000 A 
ATOM     28  C   UNL     1       5.937   1.778   0.000  0.00  0.00    +0.000 A 
ATOM     29  C   UNL     1       7.366   1.778   0.000  0.00  0.00    +0.000 A 
ATOM     30  C   UNL     1       6.651   2.190   0.000  0.00  0.00    +0.000 A 
BRANCH  30  32
ATOM     31  O   UNL     1       5.937   3.428   0.000  0.00  0.00    +0.000 OA
ATOM     32  C   UNL     1       6.651   3.015   0.000  0.00  0.00    +0.000 C 
BRANCH  32  33
ATOM     33  C   UNL     1       7.366   3.428   0.000  0.00  0.00    +0.000 C 
ATOM     34  C   UNL     1       7.366   4.253   0.000  0.00  0.00    +0.000 C 
BRANCH  34  36
ATOM     35  O   UNL     1      10.224   4.253   0.000  0.00  0.00    +0.000 OA
ATOM     36  C   UNL     1       8.080   4.665   0.000  0.00  0.00    +0.000 A 
ATOM     37  C   UNL     1       8.795   4.253   0.000  0.00  0.00    +0.000 A 
ATOM     38  C   UNL     1       8.080   5.490   0.000  0.00  0.00    +0.000 A 
ATOM     39  C   UNL     1       9.509   4.665   0.000  0.00  0.00    +0.000 A 
ATOM     40  C   UNL     1       8.795   5.903   0.000  0.00  0.00    +0.000 A 
ATOM     41  C   UNL     1       9.509   5.490   0.000  0.00  0.00    +0.000 A 
BRANCH  41  42
ATOM     42  O   UNL     1      10.224   5.903   0.000  0.00  0.00    +0.000 OA
ATOM     43  C   UNL     1      10.224   6.728   0.000  0.00  0.00    +0.000 C 
ENDBRANCH  41  42
ENDBRANCH  34  36
ENDBRANCH  32  33
ENDBRANCH  30  32
ENDBRANCH  22  25
ENDBRANCH   8  22
BRANCH   7  44
ATOM     44  C   UNL     1       3.793  -0.285   0.000  0.00  0.00    +0.000 C 
BRANCH  44  45
ATOM     45  O   UNL     1       3.079  -0.697   0.000  0.00  0.00    +0.000 OA
BRANCH  45  47
ATOM     46  O   UNL     1       2.365   0.540   0.000  0.00  0.00    +0.000 OA
ATOM     47  C   UNL     1       2.365  -0.285   0.000  0.00  0.00    +0.000 C 
ATOM     48  C   UNL     1       1.650  -0.697   0.000  0.00  0.00    +0.000 C 
ENDBRANCH  45  47
ENDBRANCH  44  45
ENDBRANCH   7  44
TORSDOF 13
