REMARK  Name = 44257681
REMARK  6 active torsions:
REMARK  status: ('A' for Active; 'I' for Inactive)
REMARK    1  A    between atoms: O_2  and  C_13
REMARK    2  A    between atoms: O_2  and  C_24
REMARK    3  A    between atoms: C_15  and  C_18
REMARK    4  A    between atoms: C_17  and  C_19
REMARK    5  A    between atoms: C_24  and  C_29
REMARK    6  A    between atoms: C_27  and  C_30
REMARK                            x       y       z     vdW  Elec       q    Type
REMARK                         _______ _______ _______ _____ _____    ______ ____
ROOT
ATOM      1  O   UNL     1       7.809  -0.825   0.000  0.00  0.00    +0.000 OA
ATOM      2  O   UNL     1       5.665  -2.062   0.000  0.00  0.00    +0.000 OA
ATOM      3  O   UNL     1       7.094  -2.888   0.000  0.00  0.00    +0.000 OA
ATOM      4  C   UNL     1       6.380  -0.825   0.000  0.00  0.00    +0.000 C 
ATOM      5  C   UNL     1       6.380  -1.650   0.000  0.00  0.00    +0.000 C 
ATOM      6  C   UNL     1       7.094  -0.412   0.000  0.00  0.00    +0.000 C 
ATOM      7  C   UNL     1       7.094  -2.062   0.000  0.00  0.00    +0.000 C 
ATOM      8  C   UNL     1       7.809  -1.650   0.000  0.00  0.00    +0.000 C 
ENDROOT
BRANCH   6  13
ATOM      9  O   UNL     1       8.546   0.384   0.000  0.00  0.00    +0.000 OA
ATOM     10  O   UNL     1       5.665   0.412   0.000  0.00  0.00    +0.000 OA
ATOM     11  O   UNL     1       7.094   2.888   0.000  0.00  0.00    +0.000 OA
ATOM     12  O   UNL     1       8.537   2.916   0.000  0.00  0.00    +0.000 OA
ATOM     13  C   UNL     1       7.094   0.412   0.000  0.00  0.00    +0.000 A 
ATOM     14  C   UNL     1       7.809   0.825   0.000  0.00  0.00    +0.000 A 
ATOM     15  C   UNL     1       6.380   0.825   0.000  0.00  0.00    +0.000 A 
ATOM     16  C   UNL     1       7.809   1.650   0.000  0.00  0.00    +0.000 A 
ATOM     17  C   UNL     1       6.380   1.650   0.000  0.00  0.00    +0.000 A 
ATOM     18  C   UNL     1       7.094   2.062   0.000  0.00  0.00    +0.000 A 
ATOM     19  C   UNL     1       8.546   2.091   0.000  0.00  0.00    +0.000 A 
ATOM     20  C   UNL     1       9.294   0.808   0.000  0.00  0.00    +0.000 A 
ATOM     21  C   UNL     1       9.294   1.667   0.000  0.00  0.00    +0.000 A 
BRANCH  20  23
ATOM     22  O   UNL     1      12.145  -0.853   0.000  0.00  0.00    +0.000 OA
ATOM     23  C   UNL     1      10.007   0.393   0.000  0.00  0.00    +0.000 A 
ATOM     24  C   UNL     1      10.723   0.802   0.000  0.00  0.00    +0.000 A 
ATOM     25  C   UNL     1      10.004  -0.432   0.000  0.00  0.00    +0.000 A 
ATOM     26  C   UNL     1      11.436   0.387   0.000  0.00  0.00    +0.000 A 
ATOM     27  C   UNL     1      10.716  -0.848   0.000  0.00  0.00    +0.000 A 
ATOM     28  C   UNL     1      11.432  -0.438   0.000  0.00  0.00    +0.000 A 
ENDBRANCH  20  23
ENDBRANCH   6  13
BRANCH   8  30
ATOM     29  O   UNL     1       8.523  -2.888   0.000  0.00  0.00    +0.000 OA
ATOM     30  C   UNL     1       8.523  -2.062   0.000  0.00  0.00    +0.000 C 
ENDBRANCH   8  30
BRANCH   4  31
ATOM     31  O   UNL     1       5.665  -0.412   0.000  0.00  0.00    +0.000 OA
BRANCH  31  33
ATOM     32  O   UNL     1       4.951  -1.650   0.000  0.00  0.00    +0.000 OA
ATOM     33  C   UNL     1       4.951  -0.825   0.000  0.00  0.00    +0.000 C 
BRANCH  33  35
ATOM     34  O   UNL     1       2.093   0.825   0.000  0.00  0.00    +0.000 OA
ATOM     35  C   UNL     1       4.236  -0.412   0.000  0.00  0.00    +0.000 A 
ATOM     36  C   UNL     1       3.522  -0.825   0.000  0.00  0.00    +0.000 A 
ATOM     37  C   UNL     1       4.236   0.412   0.000  0.00  0.00    +0.000 A 
ATOM     38  C   UNL     1       2.808  -0.412   0.000  0.00  0.00    +0.000 A 
ATOM     39  C   UNL     1       3.522   0.825   0.000  0.00  0.00    +0.000 A 
ATOM     40  C   UNL     1       2.808   0.412   0.000  0.00  0.00    +0.000 A 
ENDBRANCH  33  35
ENDBRANCH  31  33
ENDBRANCH   4  31
TORSDOF 6
