REMARK  Name = 131835978
REMARK  12 active torsions:
REMARK  status: ('A' for Active; 'I' for Inactive)
REMARK    1  A    between atoms: O_2  and  C_18
REMARK    2  A    between atoms: O_2  and  C_20
REMARK    3  A    between atoms: C_17  and  C_19
REMARK    4  A    between atoms: C_23  and  C_24
REMARK    5  A    between atoms: C_25  and  C_29
REMARK    6  A    between atoms: C_29  and  C_34
REMARK    7  A    between atoms: C_33  and  C_38
REMARK    8  A    between atoms: C_36  and  C_39
REMARK    9  A    between atoms: C_36  and  C_41
REMARK   10  A    between atoms: C_38  and  C_42
REMARK   11  A    between atoms: C_39  and  C_40
REMARK   12  A    between atoms: C_40  and  C_43
REMARK                            x       y       z     vdW  Elec       q    Type
REMARK                         _______ _______ _______ _____ _____    ______ ____
ROOT
ATOM      1  O   UNL     1       8.795   0.715   0.000  0.00  0.00    +0.000 OA
ATOM      2  O   UNL     1       6.651   1.953   0.000  0.00  0.00    +0.000 OA
ATOM      3  O   UNL     1       7.348   3.216   0.000  0.00  0.00    +0.000 OA
ATOM      4  O   UNL     1      10.268   3.228   0.000  0.00  0.00    +0.000 OA
ATOM      5  C   UNL     1       8.080   0.303   0.000  0.00  0.00    +0.000 A 
ATOM      6  C   UNL     1       7.366   0.715   0.000  0.00  0.00    +0.000 A 
ATOM      7  C   UNL     1       8.080   1.953   0.000  0.00  0.00    +0.000 A 
ATOM      8  C   UNL     1       7.366   1.540   0.000  0.00  0.00    +0.000 A 
ATOM      9  C   UNL     1       8.795   1.540   0.000  0.00  0.00    +0.000 A 
ATOM     10  C   UNL     1       8.067   2.812   0.000  0.00  0.00    +0.000 A 
ATOM     11  C   UNL     1       8.808   3.247   0.000  0.00  0.00    +0.000 A 
ATOM     12  C   UNL     1       9.546   1.958   0.000  0.00  0.00    +0.000 A 
ATOM     13  C   UNL     1       9.552   2.818   0.000  0.00  0.00    +0.000 A 
ENDROOT
BRANCH   5  18
ATOM     14  O   UNL     1       6.651  -0.522   0.000  0.00  0.00    +0.000 OA
ATOM     15  C   UNL     1       8.080  -2.172   0.000  0.00  0.00    +0.000 A 
ATOM     16  C   UNL     1       7.366  -1.760   0.000  0.00  0.00    +0.000 A 
ATOM     17  C   UNL     1       8.795  -1.760   0.000  0.00  0.00    +0.000 A 
ATOM     18  C   UNL     1       8.080  -0.522   0.000  0.00  0.00    +0.000 A 
ATOM     19  C   UNL     1       7.366  -0.935   0.000  0.00  0.00    +0.000 A 
ATOM     20  C   UNL     1       8.795  -0.935   0.000  0.00  0.00    +0.000 A 
BRANCH  15  21
ATOM     21  O   UNL     1       8.080  -2.997   0.000  0.00  0.00    +0.000 OA
BRANCH  21  30
ATOM     22  O   UNL     1       6.651  -2.997   0.000  0.00  0.00    +0.000 OA
ATOM     23  O   UNL     1       6.651  -5.472   0.000  0.00  0.00    +0.000 OA
ATOM     24  O   UNL     1       5.222  -4.647   0.000  0.00  0.00    +0.000 OA
ATOM     25  O   UNL     1       8.080  -4.647   0.000  0.00  0.00    +0.000 OA
ATOM     26  C   UNL     1       6.651  -4.647   0.000  0.00  0.00    +0.000 C 
ATOM     27  C   UNL     1       5.937  -4.235   0.000  0.00  0.00    +0.000 C 
ATOM     28  C   UNL     1       7.366  -4.235   0.000  0.00  0.00    +0.000 C 
ATOM     29  C   UNL     1       5.937  -3.410   0.000  0.00  0.00    +0.000 C 
ATOM     30  C   UNL     1       7.366  -3.410   0.000  0.00  0.00    +0.000 C 
BRANCH  29  33
ATOM     31  O   UNL     1       4.508  -3.410   0.000  0.00  0.00    +0.000 OA
ATOM     32  O   UNL     1       5.222  -2.172   0.000  0.00  0.00    +0.000 OA
ATOM     33  C   UNL     1       5.222  -2.997   0.000  0.00  0.00    +0.000 C 
ENDBRANCH  29  33
ENDBRANCH  21  30
ENDBRANCH  15  21
ENDBRANCH   5  18
BRANCH   6  34
ATOM     34  C   UNL     1       6.651   0.303   0.000  0.00  0.00    +0.000 C 
BRANCH  34  35
ATOM     35  C   UNL     1       5.937   0.715   0.000  0.00  0.00    +0.000 C 
ATOM     36  C   UNL     1       5.222   0.303   0.000  0.00  0.00    +0.000 C 
BRANCH  36  38
ATOM     37  O   UNL     1       4.508  -0.935   0.000  0.00  0.00    +0.000 OA
ATOM     38  C   UNL     1       5.222  -0.522   0.000  0.00  0.00    +0.000 C 
ENDBRANCH  36  38
BRANCH  36  39
ATOM     39  C   UNL     1       4.508   0.715   0.000  0.00  0.00    +0.000 C 
BRANCH  39  40
ATOM     40  C   UNL     1       3.793   0.303   0.000  0.00  0.00    +0.000 C 
BRANCH  40  41
ATOM     41  C   UNL     1       3.079   0.715   0.000  0.00  0.00    +0.000 C 
ATOM     42  C   UNL     1       2.364   0.303   0.000  0.00  0.00    +0.000 C 
ATOM     43  C   UNL     1       1.650   0.715   0.000  0.00  0.00    +0.000 C 
ATOM     44  C   UNL     1       2.364  -0.522   0.000  0.00  0.00    +0.000 C 
ENDBRANCH  40  41
ENDBRANCH  39  40
ENDBRANCH  36  39
ENDBRANCH  34  35
ENDBRANCH   6  34
BRANCH  11  45
ATOM     45  C   UNL     1       8.805   4.072   0.000  0.00  0.00    +0.000 C 
BRANCH  45  46
ATOM     46  C   UNL     1       9.518   4.488   0.000  0.00  0.00    +0.000 C 
ATOM     47  C   UNL     1       9.514   5.313   0.000  0.00  0.00    +0.000 C 
ATOM     48  C   UNL     1      10.227   5.728   0.000  0.00  0.00    +0.000 C 
ATOM     49  C   UNL     1       8.798   5.722   0.000  0.00  0.00    +0.000 C 
ENDBRANCH  45  46
ENDBRANCH  11  45
TORSDOF 12
