REMARK  Name = 44257652
REMARK  2 active torsions:
REMARK  status: ('A' for Active; 'I' for Inactive)
REMARK    1  A    between atoms: C_11  and  C_15
REMARK    2  A    between atoms: C_22  and  C_24
REMARK                            x       y       z     vdW  Elec       q    Type
REMARK                         _______ _______ _______ _____ _____    ______ ____
ROOT
ATOM      1  O   UNL     1       5.665   1.124   0.000  0.00  0.00    +0.000 OA
ATOM      2  O   UNL     1       7.117  -1.380   0.000  0.00  0.00    +0.000 OA
ATOM      3  O   UNL     1       4.236  -1.351   0.000  0.00  0.00    +0.000 OA
ATOM      4  O   UNL     1       7.108   1.152   0.000  0.00  0.00    +0.000 OA
ATOM      5  C   UNL     1       4.951  -0.114   0.000  0.00  0.00    +0.000 A 
ATOM      6  C   UNL     1       5.665   0.299   0.000  0.00  0.00    +0.000 A 
ATOM      7  C   UNL     1       4.951  -0.939   0.000  0.00  0.00    +0.000 A 
ATOM      8  C   UNL     1       6.380  -0.114   0.000  0.00  0.00    +0.000 A 
ATOM      9  C   UNL     1       6.380  -0.939   0.000  0.00  0.00    +0.000 A 
ATOM     10  C   UNL     1       5.665  -1.351   0.000  0.00  0.00    +0.000 A 
ATOM     11  C   UNL     1       7.117   0.327   0.000  0.00  0.00    +0.000 A 
ATOM     12  C   UNL     1       7.865  -0.956   0.000  0.00  0.00    +0.000 A 
ATOM     13  C   UNL     1       7.865  -0.097   0.000  0.00  0.00    +0.000 A 
ENDROOT
BRANCH   5  19
ATOM     14  O   UNL     1       3.522  -0.114   0.000  0.00  0.00    +0.000 OA
ATOM     15  O   UNL     1       4.951   1.536   0.000  0.00  0.00    +0.000 OA
ATOM     16  O   UNL     1       3.522   2.361   0.000  0.00  0.00    +0.000 OA
ATOM     17  O   UNL     1       2.093   1.536   0.000  0.00  0.00    +0.000 OA
ATOM     18  C   UNL     1       4.236   1.124   0.000  0.00  0.00    +0.000 C 
ATOM     19  C   UNL     1       4.236   0.299   0.000  0.00  0.00    +0.000 C 
ATOM     20  C   UNL     1       3.522   1.536   0.000  0.00  0.00    +0.000 C 
ATOM     21  C   UNL     1       2.808   1.124   0.000  0.00  0.00    +0.000 C 
ATOM     22  C   UNL     1       2.808   0.299   0.000  0.00  0.00    +0.000 C 
ENDBRANCH   5  19
BRANCH  12  24
ATOM     23  O   UNL     1      10.716  -2.617   0.000  0.00  0.00    +0.000 OA
ATOM     24  C   UNL     1       8.578  -1.371   0.000  0.00  0.00    +0.000 A 
ATOM     25  C   UNL     1       9.294  -0.962   0.000  0.00  0.00    +0.000 A 
ATOM     26  C   UNL     1       8.575  -2.196   0.000  0.00  0.00    +0.000 A 
ATOM     27  C   UNL     1      10.007  -1.377   0.000  0.00  0.00    +0.000 A 
ATOM     28  C   UNL     1       9.287  -2.611   0.000  0.00  0.00    +0.000 A 
ATOM     29  C   UNL     1      10.004  -2.202   0.000  0.00  0.00    +0.000 A 
ENDBRANCH  12  24
TORSDOF 2
