REMARK  Name = 131835988
REMARK  12 active torsions:
REMARK  status: ('A' for Active; 'I' for Inactive)
REMARK    1  A    between atoms: O_2  and  C_17
REMARK    2  A    between atoms: O_2  and  C_20
REMARK    3  A    between atoms: C_18  and  C_19
REMARK    4  A    between atoms: C_21  and  C_26
REMARK    5  A    between atoms: C_26  and  C_31
REMARK    6  A    between atoms: C_27  and  C_30
REMARK    7  A    between atoms: C_29  and  C_32
REMARK    8  A    between atoms: C_30  and  C_33
REMARK    9  A    between atoms: C_35  and  C_36
REMARK   10  A    between atoms: C_36  and  C_39
REMARK   11  A    between atoms: C_39  and  C_46
REMARK   12  A    between atoms: C_47  and  C_48
REMARK                            x       y       z     vdW  Elec       q    Type
REMARK                         _______ _______ _______ _____ _____    ______ ____
ROOT
ATOM      1  O   UNL     1       7.114  -1.003   0.000  0.00  0.00    +0.000 OA
ATOM      2  O   UNL     1       4.225  -0.990   0.000  0.00  0.00    +0.000 OA
ATOM      3  O   UNL     1       4.975   0.242   0.000  0.00  0.00    +0.000 OA
ATOM      4  C   UNL     1       5.665  -2.705   0.000  0.00  0.00    +0.000 A 
ATOM      5  C   UNL     1       4.923  -2.272   0.000  0.00  0.00    +0.000 A 
ATOM      6  C   UNL     1       6.408  -2.272   0.000  0.00  0.00    +0.000 A 
ATOM      7  C   UNL     1       5.685  -0.998   0.000  0.00  0.00    +0.000 A 
ATOM      8  C   UNL     1       6.398  -1.413   0.000  0.00  0.00    +0.000 A 
ATOM      9  C   UNL     1       4.933  -1.413   0.000  0.00  0.00    +0.000 A 
ATOM     10  C   UNL     1       6.404   0.237   0.000  0.00  0.00    +0.000 A 
ATOM     11  C   UNL     1       5.688  -0.173   0.000  0.00  0.00    +0.000 A 
ATOM     12  C   UNL     1       7.117  -0.178   0.000  0.00  0.00    +0.000 A 
ENDROOT
BRANCH  12  15
ATOM     13  O   UNL     1       8.543  -1.009   0.000  0.00  0.00    +0.000 OA
ATOM     14  O   UNL     1       9.981   1.461   0.000  0.00  0.00    +0.000 OA
ATOM     15  C   UNL     1       7.833   0.232   0.000  0.00  0.00    +0.000 A 
ATOM     16  C   UNL     1       8.546  -0.184   0.000  0.00  0.00    +0.000 A 
ATOM     17  C   UNL     1       7.836   1.056   0.000  0.00  0.00    +0.000 A 
ATOM     18  C   UNL     1       9.262   0.226   0.000  0.00  0.00    +0.000 A 
ATOM     19  C   UNL     1       8.552   1.466   0.000  0.00  0.00    +0.000 A 
ATOM     20  C   UNL     1       9.265   1.051   0.000  0.00  0.00    +0.000 A 
ENDBRANCH  12  15
BRANCH   4  21
ATOM     21  O   UNL     1       5.665  -3.530   0.000  0.00  0.00    +0.000 OA
BRANCH  21  29
ATOM     22  O   UNL     1       4.236  -3.530   0.000  0.00  0.00    +0.000 OA
ATOM     23  O   UNL     1       4.236  -6.005   0.000  0.00  0.00    +0.000 OA
ATOM     24  O   UNL     1       5.665  -5.180   0.000  0.00  0.00    +0.000 OA
ATOM     25  O   UNL     1       2.808  -5.180   0.000  0.00  0.00    +0.000 OA
ATOM     26  C   UNL     1       4.236  -5.180   0.000  0.00  0.00    +0.000 C 
ATOM     27  C   UNL     1       4.951  -4.767   0.000  0.00  0.00    +0.000 C 
ATOM     28  C   UNL     1       3.522  -4.767   0.000  0.00  0.00    +0.000 C 
ATOM     29  C   UNL     1       4.951  -3.942   0.000  0.00  0.00    +0.000 C 
ATOM     30  C   UNL     1       3.522  -3.942   0.000  0.00  0.00    +0.000 C 
BRANCH  30  33
ATOM     31  O   UNL     1       2.093  -3.942   0.000  0.00  0.00    +0.000 OA
ATOM     32  O   UNL     1       2.808  -2.705   0.000  0.00  0.00    +0.000 OA
ATOM     33  C   UNL     1       2.808  -3.530   0.000  0.00  0.00    +0.000 C 
ENDBRANCH  30  33
ENDBRANCH  21  29
ENDBRANCH   4  21
BRANCH   5  34
ATOM     34  C   UNL     1       4.205  -2.679   0.000  0.00  0.00    +0.000 C 
BRANCH  34  35
ATOM     35  C   UNL     1       3.494  -2.261   0.000  0.00  0.00    +0.000 C 
ATOM     36  C   UNL     1       2.968  -1.625   0.000  0.00  0.00    +0.000 C 
ATOM     37  C   UNL     1       2.155  -1.762   0.000  0.00  0.00    +0.000 C 
ATOM     38  C   UNL     1       3.257  -0.852   0.000  0.00  0.00    +0.000 C 
ENDBRANCH  34  35
ENDBRANCH   5  34
BRANCH  10  39
ATOM     39  C   UNL     1       6.407   1.062   0.000  0.00  0.00    +0.000 C 
BRANCH  39  40
ATOM     40  C   UNL     1       5.695   1.477   0.000  0.00  0.00    +0.000 C 
ATOM     41  C   UNL     1       5.698   2.302   0.000  0.00  0.00    +0.000 C 
ATOM     42  C   UNL     1       4.985   2.717   0.000  0.00  0.00    +0.000 C 
BRANCH  41  43
ATOM     43  C   UNL     1       6.414   2.712   0.000  0.00  0.00    +0.000 C 
BRANCH  43  44
ATOM     44  C   UNL     1       6.417   3.537   0.000  0.00  0.00    +0.000 C 
BRANCH  44  45
ATOM     45  C   UNL     1       7.133   3.947   0.000  0.00  0.00    +0.000 C 
ATOM     46  C   UNL     1       7.136   4.772   0.000  0.00  0.00    +0.000 C 
ATOM     47  C   UNL     1       6.423   5.187   0.000  0.00  0.00    +0.000 C 
BRANCH  46  49
ATOM     48  O   UNL     1       7.855   6.006   0.000  0.00  0.00    +0.000 OA
ATOM     49  C   UNL     1       7.852   5.181   0.000  0.00  0.00    +0.000 C 
ENDBRANCH  46  49
ENDBRANCH  44  45
ENDBRANCH  43  44
ENDBRANCH  41  43
ENDBRANCH  39  40
ENDBRANCH  10  39
TORSDOF 12
