REMARK  Name = 131835968
REMARK  12 active torsions:
REMARK  status: ('A' for Active; 'I' for Inactive)
REMARK    1  A    between atoms: O_2  and  C_18
REMARK    2  A    between atoms: O_2  and  C_20
REMARK    3  A    between atoms: C_17  and  C_19
REMARK    4  A    between atoms: C_23  and  C_24
REMARK    5  A    between atoms: C_26  and  C_29
REMARK    6  A    between atoms: C_29  and  C_34
REMARK    7  A    between atoms: C_33  and  C_38
REMARK    8  A    between atoms: C_37  and  C_39
REMARK    9  A    between atoms: C_38  and  C_42
REMARK   10  A    between atoms: C_39  and  C_40
REMARK   11  A    between atoms: C_40  and  C_44
REMARK   12  A    between atoms: C_43  and  C_46
REMARK                            x       y       z     vdW  Elec       q    Type
REMARK                         _______ _______ _______ _____ _____    ______ ____
ROOT
ATOM      1  O   UNL     1       8.080   0.174   0.000  0.00  0.00    +0.000 OA
ATOM      2  O   UNL     1       5.937   1.412   0.000  0.00  0.00    +0.000 OA
ATOM      3  O   UNL     1       6.633   2.675   0.000  0.00  0.00    +0.000 OA
ATOM      4  O   UNL     1       9.554   2.686   0.000  0.00  0.00    +0.000 OA
ATOM      5  C   UNL     1       7.366  -0.238   0.000  0.00  0.00    +0.000 A 
ATOM      6  C   UNL     1       6.651   0.174   0.000  0.00  0.00    +0.000 A 
ATOM      7  C   UNL     1       7.366   1.412   0.000  0.00  0.00    +0.000 A 
ATOM      8  C   UNL     1       6.651   0.999   0.000  0.00  0.00    +0.000 A 
ATOM      9  C   UNL     1       8.080   0.999   0.000  0.00  0.00    +0.000 A 
ATOM     10  C   UNL     1       7.353   2.271   0.000  0.00  0.00    +0.000 A 
ATOM     11  C   UNL     1       8.093   2.706   0.000  0.00  0.00    +0.000 A 
ATOM     12  C   UNL     1       8.831   1.417   0.000  0.00  0.00    +0.000 A 
ATOM     13  C   UNL     1       8.838   2.277   0.000  0.00  0.00    +0.000 A 
ENDROOT
BRANCH   5  18
ATOM     14  O   UNL     1       5.937  -1.063   0.000  0.00  0.00    +0.000 OA
ATOM     15  C   UNL     1       7.366  -2.713   0.000  0.00  0.00    +0.000 A 
ATOM     16  C   UNL     1       6.651  -2.301   0.000  0.00  0.00    +0.000 A 
ATOM     17  C   UNL     1       8.080  -2.301   0.000  0.00  0.00    +0.000 A 
ATOM     18  C   UNL     1       7.366  -1.063   0.000  0.00  0.00    +0.000 A 
ATOM     19  C   UNL     1       6.651  -1.476   0.000  0.00  0.00    +0.000 A 
ATOM     20  C   UNL     1       8.080  -1.476   0.000  0.00  0.00    +0.000 A 
BRANCH  15  21
ATOM     21  O   UNL     1       7.366  -3.538   0.000  0.00  0.00    +0.000 OA
BRANCH  21  30
ATOM     22  O   UNL     1       5.937  -3.538   0.000  0.00  0.00    +0.000 OA
ATOM     23  O   UNL     1       5.937  -6.013   0.000  0.00  0.00    +0.000 OA
ATOM     24  O   UNL     1       4.508  -5.188   0.000  0.00  0.00    +0.000 OA
ATOM     25  O   UNL     1       7.366  -5.188   0.000  0.00  0.00    +0.000 OA
ATOM     26  C   UNL     1       5.937  -5.188   0.000  0.00  0.00    +0.000 C 
ATOM     27  C   UNL     1       5.222  -4.776   0.000  0.00  0.00    +0.000 C 
ATOM     28  C   UNL     1       6.651  -4.776   0.000  0.00  0.00    +0.000 C 
ATOM     29  C   UNL     1       5.222  -3.951   0.000  0.00  0.00    +0.000 C 
ATOM     30  C   UNL     1       6.651  -3.951   0.000  0.00  0.00    +0.000 C 
BRANCH  29  33
ATOM     31  O   UNL     1       3.793  -3.951   0.000  0.00  0.00    +0.000 OA
ATOM     32  O   UNL     1       4.508  -2.713   0.000  0.00  0.00    +0.000 OA
ATOM     33  C   UNL     1       4.508  -3.538   0.000  0.00  0.00    +0.000 C 
ENDBRANCH  29  33
ENDBRANCH  21  30
ENDBRANCH  15  21
ENDBRANCH   5  18
BRANCH   6  34
ATOM     34  C   UNL     1       5.937  -0.238   0.000  0.00  0.00    +0.000 C 
BRANCH  34  35
ATOM     35  C   UNL     1       5.222   0.174   0.000  0.00  0.00    +0.000 C 
ATOM     36  C   UNL     1       4.508  -0.238   0.000  0.00  0.00    +0.000 C 
ATOM     37  C   UNL     1       3.793   0.174   0.000  0.00  0.00    +0.000 C 
BRANCH  36  38
ATOM     38  C   UNL     1       4.508  -1.063   0.000  0.00  0.00    +0.000 C 
BRANCH  38  39
ATOM     39  C   UNL     1       3.793  -1.476   0.000  0.00  0.00    +0.000 C 
BRANCH  39  40
ATOM     40  C   UNL     1       3.079  -1.063   0.000  0.00  0.00    +0.000 C 
ATOM     41  C   UNL     1       2.365  -1.476   0.000  0.00  0.00    +0.000 C 
ATOM     42  C   UNL     1       1.650  -1.063   0.000  0.00  0.00    +0.000 C 
ATOM     43  C   UNL     1       2.365  -2.301   0.000  0.00  0.00    +0.000 C 
ENDBRANCH  39  40
ENDBRANCH  38  39
ENDBRANCH  36  38
ENDBRANCH  34  35
ENDBRANCH   6  34
BRANCH  11  44
ATOM     44  C   UNL     1       8.090   3.531   0.000  0.00  0.00    +0.000 C 
BRANCH  44  45
ATOM     45  C   UNL     1       8.803   3.946   0.000  0.00  0.00    +0.000 C 
ATOM     46  C   UNL     1       8.800   4.771   0.000  0.00  0.00    +0.000 C 
ATOM     47  C   UNL     1       8.084   5.181   0.000  0.00  0.00    +0.000 C 
BRANCH  46  49
ATOM     48  O   UNL     1       9.510   6.012   0.000  0.00  0.00    +0.000 OA
ATOM     49  C   UNL     1       9.513   5.187   0.000  0.00  0.00    +0.000 C 
ENDBRANCH  46  49
ENDBRANCH  44  45
ENDBRANCH  11  44
TORSDOF 12
