REMARK  Name = 42608074
REMARK  6 active torsions:
REMARK  status: ('A' for Active; 'I' for Inactive)
REMARK    1  A    between atoms: O_2  and  C_15
REMARK    2  A    between atoms: O_2  and  C_17
REMARK    3  A    between atoms: O_8  and  C_25
REMARK    4  A    between atoms: O_10  and  C_33
REMARK    5  A    between atoms: C_14  and  C_16
REMARK    6  A    between atoms: C_20  and  C_26
REMARK                            x       y       z     vdW  Elec       q    Type
REMARK                         _______ _______ _______ _____ _____    ______ ____
ROOT
ATOM      1  O   UNL     1       7.117   1.999   0.000  0.00  0.00    +0.000 OA
ATOM      2  O   UNL     1       7.108  -0.533   0.000  0.00  0.00    +0.000 OA
ATOM      3  C   UNL     1       5.665   0.320   0.000  0.00  0.00    +0.000 A 
ATOM      4  C   UNL     1       6.380   0.733   0.000  0.00  0.00    +0.000 A 
ATOM      5  C   UNL     1       6.380   1.558   0.000  0.00  0.00    +0.000 A 
ATOM      6  C   UNL     1       7.865   1.575   0.000  0.00  0.00    +0.000 C 
ATOM      7  C   UNL     1       4.951   0.733   0.000  0.00  0.00    +0.000 A 
ATOM      8  C   UNL     1       7.865   0.715   0.000  0.00  0.00    +0.000 C 
ATOM      9  C   UNL     1       7.117   0.291   0.000  0.00  0.00    +0.000 C 
ATOM     10  C   UNL     1       5.665   1.970   0.000  0.00  0.00    +0.000 A 
ATOM     11  C   UNL     1       4.951   1.558   0.000  0.00  0.00    +0.000 A 
ATOM     12  C   UNL     1       4.236   0.320   0.000  0.00  0.00    +0.000 C 
ATOM     13  C   UNL     1       5.665   2.795   0.000  0.00  0.00    +0.000 C 
ENDROOT
BRANCH   6  14
ATOM     14  C   UNL     1       8.578   1.990   0.000  0.00  0.00    +0.000 A 
ATOM     15  C   UNL     1       8.575   2.815   0.000  0.00  0.00    +0.000 A 
ATOM     16  C   UNL     1       9.294   1.580   0.000  0.00  0.00    +0.000 A 
ATOM     17  C   UNL     1       9.287   3.230   0.000  0.00  0.00    +0.000 A 
ATOM     18  C   UNL     1      10.007   1.996   0.000  0.00  0.00    +0.000 A 
ATOM     19  C   UNL     1      10.004   2.820   0.000  0.00  0.00    +0.000 A 
BRANCH  19  20
ATOM     20  O   UNL     1      10.716   3.236   0.000  0.00  0.00    +0.000 OA
ATOM     21  C   UNL     1      11.432   2.826   0.000  0.00  0.00    +0.000 C 
ENDBRANCH  19  20
ENDBRANCH   6  14
BRANCH  11  22
ATOM     22  O   UNL     1       4.236   1.970   0.000  0.00  0.00    +0.000 OA
ATOM     23  C   UNL     1       4.236   2.795   0.000  0.00  0.00    +0.000 C 
ENDBRANCH  11  22
BRANCH   3  24
ATOM     24  O   UNL     1       5.665  -0.505   0.000  0.00  0.00    +0.000 OA
BRANCH  24  33
ATOM     25  O   UNL     1       4.236  -0.505   0.000  0.00  0.00    +0.000 OA
ATOM     26  O   UNL     1       4.236  -2.980   0.000  0.00  0.00    +0.000 OA
ATOM     27  O   UNL     1       2.808  -2.155   0.000  0.00  0.00    +0.000 OA
ATOM     28  O   UNL     1       5.665  -2.155   0.000  0.00  0.00    +0.000 OA
ATOM     29  C   UNL     1       4.236  -2.155   0.000  0.00  0.00    +0.000 C 
ATOM     30  C   UNL     1       3.522  -1.742   0.000  0.00  0.00    +0.000 C 
ATOM     31  C   UNL     1       4.951  -1.742   0.000  0.00  0.00    +0.000 C 
ATOM     32  C   UNL     1       3.522  -0.917   0.000  0.00  0.00    +0.000 C 
ATOM     33  C   UNL     1       4.951  -0.917   0.000  0.00  0.00    +0.000 C 
BRANCH  32  35
ATOM     34  O   UNL     1       2.093  -0.917   0.000  0.00  0.00    +0.000 OA
ATOM     35  C   UNL     1       2.808  -0.505   0.000  0.00  0.00    +0.000 C 
ENDBRANCH  32  35
ENDBRANCH  24  33
ENDBRANCH   3  24
TORSDOF 6
