REMARK  Name = 21722022
REMARK  6 active torsions:
REMARK  status: ('A' for Active; 'I' for Inactive)
REMARK    1  A    between atoms: O_2  and  C_19
REMARK    2  A    between atoms: O_2  and  C_21
REMARK    3  A    between atoms: O_10  and  C_28
REMARK    4  A    between atoms: O_11  and  C_34
REMARK    5  A    between atoms: C_18  and  C_20
REMARK    6  A    between atoms: C_24  and  C_27
REMARK                            x       y       z     vdW  Elec       q    Type
REMARK                         _______ _______ _______ _____ _____    ______ ____
ROOT
ATOM      1  O   UNL     1       4.236  -1.552   0.000  0.00  0.00    +0.000 OA
ATOM      2  C   UNL     1       5.665  -1.552   0.000  0.00  0.00    +0.000 A 
ATOM      3  C   UNL     1       4.951  -1.140   0.000  0.00  0.00    +0.000 A 
ATOM      4  C   UNL     1       6.380  -1.140   0.000  0.00  0.00    +0.000 A 
ATOM      5  C   UNL     1       5.665   0.098   0.000  0.00  0.00    +0.000 A 
ATOM      6  C   UNL     1       4.951  -0.315   0.000  0.00  0.00    +0.000 A 
ATOM      7  C   UNL     1       6.380  -0.315   0.000  0.00  0.00    +0.000 A 
ENDROOT
BRANCH   5  12
ATOM      8  O   UNL     1       6.380   1.335   0.000  0.00  0.00    +0.000 OA
ATOM      9  O   UNL     1       4.933   3.836   0.000  0.00  0.00    +0.000 OA
ATOM     10  O   UNL     1       4.236   2.573   0.000  0.00  0.00    +0.000 OA
ATOM     11  O   UNL     1       7.853   3.848   0.000  0.00  0.00    +0.000 OA
ATOM     12  C   UNL     1       5.665   0.923   0.000  0.00  0.00    +0.000 A 
ATOM     13  C   UNL     1       4.951   1.335   0.000  0.00  0.00    +0.000 A 
ATOM     14  C   UNL     1       5.665   2.573   0.000  0.00  0.00    +0.000 A 
ATOM     15  C   UNL     1       6.380   2.160   0.000  0.00  0.00    +0.000 A 
ATOM     16  C   UNL     1       4.951   2.160   0.000  0.00  0.00    +0.000 A 
ATOM     17  C   UNL     1       5.652   3.432   0.000  0.00  0.00    +0.000 A 
ATOM     18  C   UNL     1       7.131   2.579   0.000  0.00  0.00    +0.000 A 
ATOM     19  C   UNL     1       6.393   3.868   0.000  0.00  0.00    +0.000 A 
ATOM     20  C   UNL     1       7.137   3.438   0.000  0.00  0.00    +0.000 A 
BRANCH  13  21
ATOM     21  O   UNL     1       4.236   0.923   0.000  0.00  0.00    +0.000 OA
ATOM     22  C   UNL     1       3.522   1.335   0.000  0.00  0.00    +0.000 C 
ENDBRANCH  13  21
BRANCH  19  23
ATOM     23  O   UNL     1       6.390   4.693   0.000  0.00  0.00    +0.000 OA
ATOM     24  C   UNL     1       7.103   5.108   0.000  0.00  0.00    +0.000 C 
ENDBRANCH  19  23
ENDBRANCH   5  12
BRANCH   2  25
ATOM     25  O   UNL     1       5.665  -2.377   0.000  0.00  0.00    +0.000 OA
BRANCH  25  34
ATOM     26  O   UNL     1       4.236  -2.377   0.000  0.00  0.00    +0.000 OA
ATOM     27  O   UNL     1       4.236  -4.852   0.000  0.00  0.00    +0.000 OA
ATOM     28  O   UNL     1       2.808  -4.027   0.000  0.00  0.00    +0.000 OA
ATOM     29  O   UNL     1       5.665  -4.027   0.000  0.00  0.00    +0.000 OA
ATOM     30  C   UNL     1       4.236  -4.027   0.000  0.00  0.00    +0.000 C 
ATOM     31  C   UNL     1       3.522  -3.615   0.000  0.00  0.00    +0.000 C 
ATOM     32  C   UNL     1       4.951  -3.615   0.000  0.00  0.00    +0.000 C 
ATOM     33  C   UNL     1       3.522  -2.790   0.000  0.00  0.00    +0.000 C 
ATOM     34  C   UNL     1       4.951  -2.790   0.000  0.00  0.00    +0.000 C 
BRANCH  33  37
ATOM     35  O   UNL     1       2.093  -2.790   0.000  0.00  0.00    +0.000 OA
ATOM     36  O   UNL     1       2.808  -1.552   0.000  0.00  0.00    +0.000 OA
ATOM     37  C   UNL     1       2.808  -2.377   0.000  0.00  0.00    +0.000 C 
ENDBRANCH  33  37
ENDBRANCH  25  34
ENDBRANCH   2  25
TORSDOF 6
