REMARK  Name = 131835890
REMARK  9 active torsions:
REMARK  status: ('A' for Active; 'I' for Inactive)
REMARK    1  A    between atoms: O_2  and  C_17
REMARK    2  A    between atoms: O_2  and  C_23
REMARK    3  A    between atoms: C_16  and  C_22
REMARK    4  A    between atoms: C_18  and  C_26
REMARK    5  A    between atoms: C_19  and  C_25
REMARK    6  A    between atoms: C_22  and  C_27
REMARK    7  A    between atoms: C_33  and  C_34
REMARK    8  A    between atoms: C_34  and  C_39
REMARK    9  A    between atoms: C_39  and  C_40
REMARK                            x       y       z     vdW  Elec       q    Type
REMARK                         _______ _______ _______ _____ _____    ______ ____
ROOT
ATOM      1  O   UNL     1       7.137   1.755   0.000  0.00  0.00    +0.000 OA
ATOM      2  O   UNL     1       7.108  -0.720   0.000  0.00  0.00    +0.000 OA
ATOM      3  O   UNL     1       4.225   1.809   0.000  0.00  0.00    +0.000 OA
ATOM      4  C   UNL     1       7.837   0.509   0.000  0.00  0.00    +0.000 C 
ATOM      5  C   UNL     1       7.846   1.334   0.000  0.00  0.00    +0.000 C 
ATOM      6  C   UNL     1       7.117   0.105   0.000  0.00  0.00    +0.000 C 
ATOM      7  C   UNL     1       6.408   0.526   0.000  0.00  0.00    +0.000 A 
ATOM      8  C   UNL     1       5.665   0.093   0.000  0.00  0.00    +0.000 A 
ATOM      9  C   UNL     1       6.417   1.351   0.000  0.00  0.00    +0.000 A 
ATOM     10  C   UNL     1       4.923   0.526   0.000  0.00  0.00    +0.000 A 
ATOM     11  C   UNL     1       5.685   1.800   0.000  0.00  0.00    +0.000 A 
ATOM     12  C   UNL     1       4.933   1.385   0.000  0.00  0.00    +0.000 A 
ENDROOT
BRANCH   5  15
ATOM     13  O   UNL     1       9.266   0.493   0.000  0.00  0.00    +0.000 OA
ATOM     14  O   UNL     1      10.723   2.951   0.000  0.00  0.00    +0.000 OA
ATOM     15  C   UNL     1       8.566   1.738   0.000  0.00  0.00    +0.000 A 
ATOM     16  C   UNL     1       9.275   1.318   0.000  0.00  0.00    +0.000 A 
ATOM     17  C   UNL     1       8.575   2.563   0.000  0.00  0.00    +0.000 A 
ATOM     18  C   UNL     1       9.994   1.722   0.000  0.00  0.00    +0.000 A 
ATOM     19  C   UNL     1       9.294   2.967   0.000  0.00  0.00    +0.000 A 
ATOM     20  C   UNL     1      10.004   2.547   0.000  0.00  0.00    +0.000 A 
ENDBRANCH   5  15
BRANCH   8  21
ATOM     21  O   UNL     1       5.665  -0.732   0.000  0.00  0.00    +0.000 OA
BRANCH  21  29
ATOM     22  O   UNL     1       4.236  -0.732   0.000  0.00  0.00    +0.000 OA
ATOM     23  O   UNL     1       4.236  -3.207   0.000  0.00  0.00    +0.000 OA
ATOM     24  O   UNL     1       5.665  -2.382   0.000  0.00  0.00    +0.000 OA
ATOM     25  O   UNL     1       2.808  -2.382   0.000  0.00  0.00    +0.000 OA
ATOM     26  C   UNL     1       4.236  -2.382   0.000  0.00  0.00    +0.000 C 
ATOM     27  C   UNL     1       4.951  -1.969   0.000  0.00  0.00    +0.000 C 
ATOM     28  C   UNL     1       3.522  -1.969   0.000  0.00  0.00    +0.000 C 
ATOM     29  C   UNL     1       4.951  -1.144   0.000  0.00  0.00    +0.000 C 
ATOM     30  C   UNL     1       3.522  -1.144   0.000  0.00  0.00    +0.000 C 
BRANCH  30  33
ATOM     31  O   UNL     1       2.093  -1.144   0.000  0.00  0.00    +0.000 OA
ATOM     32  O   UNL     1       2.808   0.093   0.000  0.00  0.00    +0.000 OA
ATOM     33  C   UNL     1       2.808  -0.732   0.000  0.00  0.00    +0.000 C 
ENDBRANCH  30  33
ENDBRANCH  21  29
ENDBRANCH   8  21
BRANCH   4  34
ATOM     34  C   UNL     1       8.546   0.088   0.000  0.00  0.00    +0.000 C 
BRANCH  34  35
ATOM     35  C   UNL     1       8.537  -0.736   0.000  0.00  0.00    +0.000 C 
ATOM     36  C   UNL     1       9.246  -1.157   0.000  0.00  0.00    +0.000 C 
ATOM     37  C   UNL     1       9.237  -1.982   0.000  0.00  0.00    +0.000 C 
BRANCH  36  38
ATOM     38  C   UNL     1       9.966  -0.753   0.000  0.00  0.00    +0.000 C 
BRANCH  38  39
ATOM     39  C   UNL     1      10.675  -1.174   0.000  0.00  0.00    +0.000 C 
BRANCH  39  40
ATOM     40  C   UNL     1      11.395  -0.769   0.000  0.00  0.00    +0.000 C 
ATOM     41  C   UNL     1      12.104  -1.190   0.000  0.00  0.00    +0.000 C 
ATOM     42  C   UNL     1      12.823  -0.786   0.000  0.00  0.00    +0.000 C 
ATOM     43  C   UNL     1      12.095  -2.015   0.000  0.00  0.00    +0.000 C 
ENDBRANCH  39  40
ENDBRANCH  38  39
ENDBRANCH  36  38
ENDBRANCH  34  35
ENDBRANCH   4  34
TORSDOF 9
