REMARK  Name = 44258953
REMARK  5 active torsions:
REMARK  status: ('A' for Active; 'I' for Inactive)
REMARK    1  A    between atoms: O_2  and  C_14
REMARK    2  A    between atoms: O_2  and  C_19
REMARK    3  A    between atoms: O_3  and  C_16
REMARK    4  A    between atoms: O_3  and  C_18
REMARK    5  A    between atoms: C_20  and  C_24
REMARK                            x       y       z     vdW  Elec       q    Type
REMARK                         _______ _______ _______ _____ _____    ______ ____
ROOT
ATOM      1  O   UNL     1       5.665   1.080   0.000  0.00  0.00    +0.000 OA
ATOM      2  O   UNL     1       3.522  -0.157   0.000  0.00  0.00    +0.000 OA
ATOM      3  O   UNL     1       2.776   1.078   0.000  0.00  0.00    +0.000 OA
ATOM      4  O   UNL     1       4.226   3.612   0.000  0.00  0.00    +0.000 OA
ATOM      5  C   UNL     1       4.951  -0.157   0.000  0.00  0.00    +0.000 A 
ATOM      6  C   UNL     1       5.665   0.255   0.000  0.00  0.00    +0.000 A 
ATOM      7  C   UNL     1       4.236   0.255   0.000  0.00  0.00    +0.000 A 
ATOM      8  C   UNL     1       4.236   1.080   0.000  0.00  0.00    +0.000 A 
ATOM      9  C   UNL     1       4.951   1.493   0.000  0.00  0.00    +0.000 A 
ATOM     10  C   UNL     1       3.486   1.498   0.000  0.00  0.00    +0.000 A 
ATOM     11  C   UNL     1       4.964   2.352   0.000  0.00  0.00    +0.000 A 
ATOM     12  C   UNL     1       3.479   2.358   0.000  0.00  0.00    +0.000 A 
ATOM     13  C   UNL     1       4.223   2.787   0.000  0.00  0.00    +0.000 A 
ENDROOT
BRANCH   6  15
ATOM     14  O   UNL     1       8.523  -1.395   0.000  0.00  0.00    +0.000 OA
ATOM     15  C   UNL     1       6.380  -0.157   0.000  0.00  0.00    +0.000 A 
ATOM     16  C   UNL     1       6.380  -0.982   0.000  0.00  0.00    +0.000 A 
ATOM     17  C   UNL     1       7.094   0.255   0.000  0.00  0.00    +0.000 A 
ATOM     18  C   UNL     1       7.094  -1.395   0.000  0.00  0.00    +0.000 A 
ATOM     19  C   UNL     1       7.809  -0.157   0.000  0.00  0.00    +0.000 A 
ATOM     20  C   UNL     1       7.809  -0.982   0.000  0.00  0.00    +0.000 A 
ENDBRANCH   6  15
BRANCH   5  21
ATOM     21  O   UNL     1       4.951  -0.982   0.000  0.00  0.00    +0.000 OA
BRANCH  21  29
ATOM     22  O   UNL     1       3.522  -0.982   0.000  0.00  0.00    +0.000 OA
ATOM     23  O   UNL     1       3.522  -3.457   0.000  0.00  0.00    +0.000 OA
ATOM     24  O   UNL     1       2.093  -2.632   0.000  0.00  0.00    +0.000 OA
ATOM     25  C   UNL     1       3.522  -2.632   0.000  0.00  0.00    +0.000 C 
ATOM     26  C   UNL     1       2.808  -2.220   0.000  0.00  0.00    +0.000 C 
ATOM     27  C   UNL     1       4.236  -2.220   0.000  0.00  0.00    +0.000 C 
ATOM     28  C   UNL     1       2.808  -1.395   0.000  0.00  0.00    +0.000 C 
ATOM     29  C   UNL     1       4.236  -1.395   0.000  0.00  0.00    +0.000 C 
ATOM     30  C   UNL     1       2.093  -0.982   0.000  0.00  0.00    +0.000 C 
BRANCH  27  31
ATOM     31  O   UNL     1       4.951  -2.632   0.000  0.00  0.00    +0.000 OA
BRANCH  31  33
ATOM     32  O   UNL     1       4.236  -3.870   0.000  0.00  0.00    +0.000 OA
ATOM     33  C   UNL     1       4.951  -3.457   0.000  0.00  0.00    +0.000 C 
ATOM     34  C   UNL     1       5.665  -3.870   0.000  0.00  0.00    +0.000 C 
ENDBRANCH  31  33
ENDBRANCH  27  31
ENDBRANCH  21  29
ENDBRANCH   5  21
TORSDOF 5
