REMARK  Name = 44258112
REMARK  10 active torsions:
REMARK  status: ('A' for Active; 'I' for Inactive)
REMARK    1  A    between atoms: O_1  and  C_19
REMARK    2  A    between atoms: O_1  and  C_22
REMARK    3  A    between atoms: O_5  and  C_24
REMARK    4  A    between atoms: O_5  and  C_31
REMARK    5  A    between atoms: O_10  and  C_29
REMARK    6  A    between atoms: O_10  and  C_34
REMARK    7  A    between atoms: C_23  and  C_29
REMARK    8  A    between atoms: C_34  and  C_38
REMARK    9  A    between atoms: C_38  and  C_42
REMARK   10  A    between atoms: C_40  and  C_43
REMARK                            x       y       z     vdW  Elec       q    Type
REMARK                         _______ _______ _______ _____ _____    ______ ____
ROOT
ATOM      1  O   UNL     1       7.094  -1.386   0.000  0.00  0.00    +0.000 OA
ATOM      2  O   UNL     1       7.094  -3.861   0.000  0.00  0.00    +0.000 OA
ATOM      3  O   UNL     1       5.665  -3.036   0.000  0.00  0.00    +0.000 OA
ATOM      4  C   UNL     1       7.809  -2.623   0.000  0.00  0.00    +0.000 C 
ATOM      5  C   UNL     1       7.094  -3.036   0.000  0.00  0.00    +0.000 C 
ATOM      6  C   UNL     1       6.380  -2.623   0.000  0.00  0.00    +0.000 C 
ATOM      7  C   UNL     1       6.380  -1.798   0.000  0.00  0.00    +0.000 C 
ATOM      8  C   UNL     1       7.809  -1.798   0.000  0.00  0.00    +0.000 C 
ENDROOT
BRANCH   4   9
ATOM      9  O   UNL     1       8.523  -3.036   0.000  0.00  0.00    +0.000 OA
BRANCH   9  14
ATOM     10  O   UNL     1       9.238  -1.798   0.000  0.00  0.00    +0.000 OA
ATOM     11  O   UNL     1       9.952  -3.861   0.000  0.00  0.00    +0.000 OA
ATOM     12  O   UNL     1      11.381  -3.036   0.000  0.00  0.00    +0.000 OA
ATOM     13  O   UNL     1      11.381  -1.386   0.000  0.00  0.00    +0.000 OA
ATOM     14  C   UNL     1       9.238  -2.623   0.000  0.00  0.00    +0.000 C 
ATOM     15  C   UNL     1       9.952  -3.036   0.000  0.00  0.00    +0.000 C 
ATOM     16  C   UNL     1      10.667  -2.623   0.000  0.00  0.00    +0.000 C 
ATOM     17  C   UNL     1      10.667  -1.798   0.000  0.00  0.00    +0.000 C 
ATOM     18  C   UNL     1       9.952  -1.386   0.000  0.00  0.00    +0.000 C 
ATOM     19  C   UNL     1       9.952  -0.561   0.000  0.00  0.00    +0.000 C 
ENDBRANCH   9  14
ENDBRANCH   4   9
BRANCH   8  20
ATOM     20  O   UNL     1       8.523  -1.386   0.000  0.00  0.00    +0.000 OA
BRANCH  20  24
ATOM     21  O   UNL     1       9.972   1.141   0.000  0.00  0.00    +0.000 OA
ATOM     22  O   UNL     1       7.082   1.155   0.000  0.00  0.00    +0.000 OA
ATOM     23  O   UNL     1       7.833   2.387   0.000  0.00  0.00    +0.000 OA
ATOM     24  C   UNL     1       8.523  -0.561   0.000  0.00  0.00    +0.000 A 
ATOM     25  C   UNL     1       9.266  -0.128   0.000  0.00  0.00    +0.000 A 
ATOM     26  C   UNL     1       7.781  -0.128   0.000  0.00  0.00    +0.000 A 
ATOM     27  C   UNL     1       9.256   0.731   0.000  0.00  0.00    +0.000 A 
ATOM     28  C   UNL     1       7.791   0.731   0.000  0.00  0.00    +0.000 A 
ATOM     29  C   UNL     1       8.543   1.146   0.000  0.00  0.00    +0.000 A 
ATOM     30  C   UNL     1       8.546   1.971   0.000  0.00  0.00    +0.000 A 
ATOM     31  C   UNL     1       9.975   1.966   0.000  0.00  0.00    +0.000 A 
ATOM     32  C   UNL     1       9.262   2.381   0.000  0.00  0.00    +0.000 A 
BRANCH  31  35
ATOM     33  O   UNL     1      12.833   1.955   0.000  0.00  0.00    +0.000 OA
ATOM     34  O   UNL     1      12.839   3.605   0.000  0.00  0.00    +0.000 OA
ATOM     35  C   UNL     1      10.691   2.376   0.000  0.00  0.00    +0.000 A 
ATOM     36  C   UNL     1      11.404   1.960   0.000  0.00  0.00    +0.000 A 
ATOM     37  C   UNL     1      10.694   3.201   0.000  0.00  0.00    +0.000 A 
ATOM     38  C   UNL     1      12.120   2.370   0.000  0.00  0.00    +0.000 A 
ATOM     39  C   UNL     1      11.410   3.610   0.000  0.00  0.00    +0.000 A 
ATOM     40  C   UNL     1      12.123   3.195   0.000  0.00  0.00    +0.000 A 
ENDBRANCH  31  35
ENDBRANCH  20  24
ENDBRANCH   8  20
BRANCH   7  41
ATOM     41  C   UNL     1       5.665  -1.386   0.000  0.00  0.00    +0.000 C 
BRANCH  41  42
ATOM     42  O   UNL     1       4.951  -1.798   0.000  0.00  0.00    +0.000 OA
BRANCH  42  44
ATOM     43  O   UNL     1       4.236  -0.561   0.000  0.00  0.00    +0.000 OA
ATOM     44  C   UNL     1       4.236  -1.386   0.000  0.00  0.00    +0.000 C 
BRANCH  44  45
ATOM     45  C   UNL     1       3.522  -1.798   0.000  0.00  0.00    +0.000 C 
BRANCH  45  48
ATOM     46  O   UNL     1       2.093  -1.798   0.000  0.00  0.00    +0.000 OA
ATOM     47  O   UNL     1       2.808  -0.561   0.000  0.00  0.00    +0.000 OA
ATOM     48  C   UNL     1       2.808  -1.386   0.000  0.00  0.00    +0.000 C 
ENDBRANCH  45  48
ENDBRANCH  44  45
ENDBRANCH  42  44
ENDBRANCH  41  42
ENDBRANCH   7  41
TORSDOF 10
