REMARK  Name = 131833696
REMARK  5 active torsions:
REMARK  status: ('A' for Active; 'I' for Inactive)
REMARK    1  A    between atoms: S_1  and  O_3
REMARK    2  A    between atoms: O_3  and  C_16
REMARK    3  A    between atoms: O_13  and  C_33
REMARK    4  A    between atoms: C_15  and  C_19
REMARK    5  A    between atoms: C_28  and  C_30
REMARK                            x       y       z     vdW  Elec       q    Type
REMARK                         _______ _______ _______ _____ _____    ______ ____
ROOT
ATOM      1  O   UNL     1       5.222   1.329   0.000  0.00  0.00    +0.000 OA
ATOM      2  O   UNL     1       6.674  -1.175   0.000  0.00  0.00    +0.000 OA
ATOM      3  O   UNL     1       3.793  -1.146   0.000  0.00  0.00    +0.000 OA
ATOM      4  O   UNL     1       6.665   1.357   0.000  0.00  0.00    +0.000 OA
ATOM      5  C   UNL     1       4.508   0.091   0.000  0.00  0.00    +0.000 A 
ATOM      6  C   UNL     1       5.222   0.504   0.000  0.00  0.00    +0.000 A 
ATOM      7  C   UNL     1       4.508  -0.734   0.000  0.00  0.00    +0.000 A 
ATOM      8  C   UNL     1       5.937   0.091   0.000  0.00  0.00    +0.000 A 
ATOM      9  C   UNL     1       5.937  -0.734   0.000  0.00  0.00    +0.000 A 
ATOM     10  C   UNL     1       5.222  -1.146   0.000  0.00  0.00    +0.000 A 
ATOM     11  C   UNL     1       6.674   0.532   0.000  0.00  0.00    +0.000 A 
ATOM     12  C   UNL     1       7.422  -0.751   0.000  0.00  0.00    +0.000 A 
ATOM     13  C   UNL     1       7.422   0.108   0.000  0.00  0.00    +0.000 A 
ENDROOT
BRANCH   5  17
ATOM     14  O   UNL     1       3.079   0.091   0.000  0.00  0.00    +0.000 OA
ATOM     15  O   UNL     1       3.079   2.566   0.000  0.00  0.00    +0.000 OA
ATOM     16  O   UNL     1       1.650   1.741   0.000  0.00  0.00    +0.000 OA
ATOM     17  C   UNL     1       3.793   0.504   0.000  0.00  0.00    +0.000 C 
ATOM     18  C   UNL     1       3.793   1.329   0.000  0.00  0.00    +0.000 C 
ATOM     19  C   UNL     1       3.079   1.741   0.000  0.00  0.00    +0.000 C 
ATOM     20  C   UNL     1       2.364   0.504   0.000  0.00  0.00    +0.000 C 
ATOM     21  C   UNL     1       2.364   1.329   0.000  0.00  0.00    +0.000 C 
ATOM     22  C   UNL     1       1.650   0.091   0.000  0.00  0.00    +0.000 C 
BRANCH  18  23
ATOM     23  O   UNL     1       4.508   1.741   0.000  0.00  0.00    +0.000 OA
BRANCH  23  24
ATOM     24  S   UNL     1       4.508   2.566   0.000  0.00  0.00    +0.000 S 
ATOM     25  O   UNL     1       4.508   3.391   0.000  0.00  0.00    +0.000 OA
ATOM     26  O   UNL     1       5.333   2.566   0.000  0.00  0.00    +0.000 OA
ATOM     27  O   UNL     1       3.683   2.566   0.000  0.00  0.00    +0.000 OA
ENDBRANCH  23  24
ENDBRANCH  18  23
ENDBRANCH   5  17
BRANCH  12  29
ATOM     28  O   UNL     1      10.273  -2.412   0.000  0.00  0.00    +0.000 OA
ATOM     29  C   UNL     1       8.135  -1.166   0.000  0.00  0.00    +0.000 A 
ATOM     30  C   UNL     1       8.132  -1.991   0.000  0.00  0.00    +0.000 A 
ATOM     31  C   UNL     1       8.851  -0.757   0.000  0.00  0.00    +0.000 A 
ATOM     32  C   UNL     1       8.844  -2.407   0.000  0.00  0.00    +0.000 A 
ATOM     33  C   UNL     1       9.564  -1.172   0.000  0.00  0.00    +0.000 A 
ATOM     34  C   UNL     1       9.560  -1.997   0.000  0.00  0.00    +0.000 A 
BRANCH  32  35
ATOM     35  O   UNL     1       8.841  -3.232   0.000  0.00  0.00    +0.000 OA
ATOM     36  C   UNL     1       9.554  -3.647   0.000  0.00  0.00    +0.000 C 
ENDBRANCH  32  35
ENDBRANCH  12  29
TORSDOF 5
