REMARK  Name = 74978486
REMARK  5 active torsions:
REMARK  status: ('A' for Active; 'I' for Inactive)
REMARK    1  A    between atoms: O_2  and  C_19
REMARK    2  A    between atoms: O_2  and  C_21
REMARK    3  A    between atoms: O_12  and  C_30
REMARK    4  A    between atoms: C_18  and  C_20
REMARK    5  A    between atoms: C_24  and  C_27
REMARK                            x       y       z     vdW  Elec       q    Type
REMARK                         _______ _______ _______ _____ _____    ______ ____
ROOT
ATOM      1  O   UNL     1       4.236  -1.372   0.000  0.00  0.00    +0.000 OA
ATOM      2  C   UNL     1       5.665  -1.372   0.000  0.00  0.00    +0.000 A 
ATOM      3  C   UNL     1       4.951  -0.960   0.000  0.00  0.00    +0.000 A 
ATOM      4  C   UNL     1       6.380  -0.960   0.000  0.00  0.00    +0.000 A 
ATOM      5  C   UNL     1       5.665   0.278   0.000  0.00  0.00    +0.000 A 
ATOM      6  C   UNL     1       4.951  -0.135   0.000  0.00  0.00    +0.000 A 
ATOM      7  C   UNL     1       6.380  -0.135   0.000  0.00  0.00    +0.000 A 
ENDROOT
BRANCH   5  13
ATOM      8  O   UNL     1       6.408   1.536   0.000  0.00  0.00    +0.000 OA
ATOM      9  O   UNL     1       6.580   4.846   0.000  0.00  0.00    +0.000 OA
ATOM     10  O   UNL     1       7.727   4.178   0.000  0.00  0.00    +0.000 OA
ATOM     11  O   UNL     1       4.975   4.050   0.000  0.00  0.00    +0.000 OA
ATOM     12  O   UNL     1       4.225   2.818   0.000  0.00  0.00    +0.000 OA
ATOM     13  C   UNL     1       5.665   1.103   0.000  0.00  0.00    +0.000 A 
ATOM     14  C   UNL     1       5.685   2.810   0.000  0.00  0.00    +0.000 A 
ATOM     15  C   UNL     1       6.398   2.395   0.000  0.00  0.00    +0.000 A 
ATOM     16  C   UNL     1       4.923   1.536   0.000  0.00  0.00    +0.000 A 
ATOM     17  C   UNL     1       4.933   2.395   0.000  0.00  0.00    +0.000 A 
ATOM     18  C   UNL     1       5.688   3.635   0.000  0.00  0.00    +0.000 A 
ATOM     19  C   UNL     1       6.404   4.045   0.000  0.00  0.00    +0.000 A 
ATOM     20  C   UNL     1       7.117   3.630   0.000  0.00  0.00    +0.000 A 
ATOM     21  C   UNL     1       7.114   2.805   0.000  0.00  0.00    +0.000 A 
ATOM     22  C   UNL     1       7.396   4.928   0.000  0.00  0.00    +0.000 C 
BRANCH  16  23
ATOM     23  O   UNL     1       4.205   1.129   0.000  0.00  0.00    +0.000 OA
ATOM     24  C   UNL     1       3.494   1.546   0.000  0.00  0.00    +0.000 C 
ENDBRANCH  16  23
ENDBRANCH   5  13
BRANCH   2  25
ATOM     25  O   UNL     1       5.665  -2.197   0.000  0.00  0.00    +0.000 OA
BRANCH  25  34
ATOM     26  O   UNL     1       4.236  -2.197   0.000  0.00  0.00    +0.000 OA
ATOM     27  O   UNL     1       4.236  -4.672   0.000  0.00  0.00    +0.000 OA
ATOM     28  O   UNL     1       2.808  -3.847   0.000  0.00  0.00    +0.000 OA
ATOM     29  O   UNL     1       5.665  -3.847   0.000  0.00  0.00    +0.000 OA
ATOM     30  C   UNL     1       4.236  -3.847   0.000  0.00  0.00    +0.000 C 
ATOM     31  C   UNL     1       3.522  -3.434   0.000  0.00  0.00    +0.000 C 
ATOM     32  C   UNL     1       4.951  -3.434   0.000  0.00  0.00    +0.000 C 
ATOM     33  C   UNL     1       3.522  -2.610   0.000  0.00  0.00    +0.000 C 
ATOM     34  C   UNL     1       4.951  -2.610   0.000  0.00  0.00    +0.000 C 
BRANCH  33  37
ATOM     35  O   UNL     1       2.093  -2.610   0.000  0.00  0.00    +0.000 OA
ATOM     36  O   UNL     1       2.808  -1.372   0.000  0.00  0.00    +0.000 OA
ATOM     37  C   UNL     1       2.808  -2.197   0.000  0.00  0.00    +0.000 C 
ENDBRANCH  33  37
ENDBRANCH  25  34
ENDBRANCH   2  25
TORSDOF 5
