REMARK  Name = 44259203
REMARK  13 active torsions:
REMARK  status: ('A' for Active; 'I' for Inactive)
REMARK    1  A    between atoms: O_1  and  C_24
REMARK    2  A    between atoms: O_1  and  C_29
REMARK    3  A    between atoms: O_4  and  C_28
REMARK    4  A    between atoms: O_4  and  C_40
REMARK    5  A    between atoms: O_7  and  C_30
REMARK    6  A    between atoms: O_7  and  C_44
REMARK    7  A    between atoms: O_12  and  C_39
REMARK    8  A    between atoms: O_12  and  C_46
REMARK    9  A    between atoms: C_27  and  C_33
REMARK   10  A    between atoms: C_38  and  C_41
REMARK   11  A    between atoms: C_42  and  C_50
REMARK   12  A    between atoms: C_44  and  C_52
REMARK   13  A    between atoms: C_55  and  C_59
REMARK                            x       y       z     vdW  Elec       q    Type
REMARK                         _______ _______ _______ _____ _____    ______ ____
ROOT
ATOM      1  O   UNL     1       5.674  -1.395   0.000  0.00  0.00    +0.000 OA
ENDROOT
BRANCH   1   5
ATOM      2  O   UNL     1       6.389   0.667   0.000  0.00  0.00    +0.000 OA
ATOM      3  O   UNL     1       4.245  -0.570   0.000  0.00  0.00    +0.000 OA
ATOM      4  O   UNL     1       3.499   0.665   0.000  0.00  0.00    +0.000 OA
ATOM      5  C   UNL     1       5.674  -0.570   0.000  0.00  0.00    +0.000 A 
ATOM      6  C   UNL     1       6.389  -0.158   0.000  0.00  0.00    +0.000 A 
ATOM      7  C   UNL     1       4.960  -0.158   0.000  0.00  0.00    +0.000 A 
ATOM      8  C   UNL     1       4.960   0.667   0.000  0.00  0.00    +0.000 A 
ATOM      9  C   UNL     1       4.947   2.374   0.000  0.00  0.00    +0.000 A 
ATOM     10  C   UNL     1       5.674   1.080   0.000  0.00  0.00    +0.000 A 
ATOM     11  C   UNL     1       5.688   1.939   0.000  0.00  0.00    +0.000 A 
ATOM     12  C   UNL     1       4.209   1.085   0.000  0.00  0.00    +0.000 A 
ATOM     13  C   UNL     1       4.202   1.945   0.000  0.00  0.00    +0.000 A 
BRANCH   6  16
ATOM     14  O   UNL     1       9.247  -0.158   0.000  0.00  0.00    +0.000 OA
ATOM     15  O   UNL     1       9.247  -1.808   0.000  0.00  0.00    +0.000 OA
ATOM     16  C   UNL     1       7.103  -0.570   0.000  0.00  0.00    +0.000 A 
ATOM     17  C   UNL     1       7.818  -0.158   0.000  0.00  0.00    +0.000 A 
ATOM     18  C   UNL     1       7.103  -1.395   0.000  0.00  0.00    +0.000 A 
ATOM     19  C   UNL     1       8.532  -0.570   0.000  0.00  0.00    +0.000 A 
ATOM     20  C   UNL     1       7.818  -1.808   0.000  0.00  0.00    +0.000 A 
ATOM     21  C   UNL     1       8.532  -1.395   0.000  0.00  0.00    +0.000 A 
ENDBRANCH   6  16
BRANCH   9  22
ATOM     22  O   UNL     1       4.950   3.199   0.000  0.00  0.00    +0.000 OA
BRANCH  22  31
ATOM     23  O   UNL     1       4.240   4.440   0.000  0.00  0.00    +0.000 OA
ATOM     24  O   UNL     1       2.092   3.210   0.000  0.00  0.00    +0.000 OA
ATOM     25  O   UNL     1       2.098   4.860   0.000  0.00  0.00    +0.000 OA
ATOM     26  O   UNL     1       3.518   2.380   0.000  0.00  0.00    +0.000 OA
ATOM     27  C   UNL     1       2.808   3.620   0.000  0.00  0.00    +0.000 C 
ATOM     28  C   UNL     1       2.811   4.445   0.000  0.00  0.00    +0.000 C 
ATOM     29  C   UNL     1       3.521   3.205   0.000  0.00  0.00    +0.000 C 
ATOM     30  C   UNL     1       3.527   4.855   0.000  0.00  0.00    +0.000 C 
ATOM     31  C   UNL     1       4.237   3.615   0.000  0.00  0.00    +0.000 C 
BRANCH  30  33
ATOM     32  O   UNL     1       4.247   6.090   0.000  0.00  0.00    +0.000 OA
ATOM     33  C   UNL     1       3.530   5.680   0.000  0.00  0.00    +0.000 C 
ENDBRANCH  30  33
ENDBRANCH  22  31
ENDBRANCH   9  22
ENDBRANCH   1   5
BRANCH   1  41
ATOM     34  O   UNL     1       4.245  -1.395   0.000  0.00  0.00    +0.000 OA
ATOM     35  O   UNL     1       4.245  -3.870   0.000  0.00  0.00    +0.000 OA
ATOM     36  O   UNL     1       2.816  -3.045   0.000  0.00  0.00    +0.000 OA
ATOM     37  C   UNL     1       4.960  -2.633   0.000  0.00  0.00    +0.000 C 
ATOM     38  C   UNL     1       4.245  -3.045   0.000  0.00  0.00    +0.000 C 
ATOM     39  C   UNL     1       3.531  -2.633   0.000  0.00  0.00    +0.000 C 
ATOM     40  C   UNL     1       3.531  -1.808   0.000  0.00  0.00    +0.000 C 
ATOM     41  C   UNL     1       4.960  -1.808   0.000  0.00  0.00    +0.000 C 
BRANCH  40  43
ATOM     42  O   UNL     1       2.102  -1.808   0.000  0.00  0.00    +0.000 OA
ATOM     43  C   UNL     1       2.816  -1.395   0.000  0.00  0.00    +0.000 C 
ENDBRANCH  40  43
BRANCH  37  44
ATOM     44  O   UNL     1       5.674  -3.045   0.000  0.00  0.00    +0.000 OA
BRANCH  44  48
ATOM     45  O   UNL     1       4.960  -4.283   0.000  0.00  0.00    +0.000 OA
ATOM     46  O   UNL     1       7.103  -5.520   0.000  0.00  0.00    +0.000 OA
ATOM     47  O   UNL     1       5.674  -6.345   0.000  0.00  0.00    +0.000 OA
ATOM     48  C   UNL     1       5.674  -3.870   0.000  0.00  0.00    +0.000 C 
ATOM     49  C   UNL     1       6.389  -4.283   0.000  0.00  0.00    +0.000 C 
ATOM     50  C   UNL     1       6.389  -5.108   0.000  0.00  0.00    +0.000 C 
ATOM     51  C   UNL     1       5.674  -5.520   0.000  0.00  0.00    +0.000 C 
ATOM     52  C   UNL     1       4.960  -5.108   0.000  0.00  0.00    +0.000 C 
BRANCH  49  53
ATOM     53  O   UNL     1       7.103  -3.870   0.000  0.00  0.00    +0.000 OA
BRANCH  53  55
ATOM     54  O   UNL     1       7.818  -5.108   0.000  0.00  0.00    +0.000 OA
ATOM     55  C   UNL     1       7.818  -4.283   0.000  0.00  0.00    +0.000 C 
BRANCH  55  56
ATOM     56  C   UNL     1       8.532  -3.870   0.000  0.00  0.00    +0.000 C 
ATOM     57  C   UNL     1       9.247  -4.283   0.000  0.00  0.00    +0.000 C 
BRANCH  57  59
ATOM     58  O   UNL     1      12.105  -2.633   0.000  0.00  0.00    +0.000 OA
ATOM     59  C   UNL     1       9.961  -3.870   0.000  0.00  0.00    +0.000 A 
ATOM     60  C   UNL     1       9.961  -3.045   0.000  0.00  0.00    +0.000 A 
ATOM     61  C   UNL     1      10.676  -4.283   0.000  0.00  0.00    +0.000 A 
ATOM     62  C   UNL     1      10.676  -2.633   0.000  0.00  0.00    +0.000 A 
ATOM     63  C   UNL     1      11.390  -3.870   0.000  0.00  0.00    +0.000 A 
ATOM     64  C   UNL     1      11.390  -3.045   0.000  0.00  0.00    +0.000 A 
ENDBRANCH  57  59
ENDBRANCH  55  56
ENDBRANCH  53  55
ENDBRANCH  49  53
ENDBRANCH  44  48
ENDBRANCH  37  44
ENDBRANCH   1  41
TORSDOF 13
