REMARK  Name = 44259887
REMARK  8 active torsions:
REMARK  status: ('A' for Active; 'I' for Inactive)
REMARK    1  A    between atoms: O_2  and  C_19
REMARK    2  A    between atoms: O_2  and  C_21
REMARK    3  A    between atoms: O_7  and  C_23
REMARK    4  A    between atoms: O_10  and  C_28
REMARK    5  A    between atoms: O_12  and  C_34
REMARK    6  A    between atoms: O_14  and  C_35
REMARK    7  A    between atoms: C_18  and  C_20
REMARK    8  A    between atoms: C_24  and  C_27
REMARK                            x       y       z     vdW  Elec       q    Type
REMARK                         _______ _______ _______ _____ _____    ______ ____
ROOT
ATOM      1  O   UNL     1       5.665   1.544   0.000  0.00  0.00    +0.000 OA
ATOM      2  C   UNL     1       5.665  -0.931   0.000  0.00  0.00    +0.000 A 
ATOM      3  C   UNL     1       6.380  -0.518   0.000  0.00  0.00    +0.000 A 
ATOM      4  C   UNL     1       4.951  -0.518   0.000  0.00  0.00    +0.000 A 
ATOM      5  C   UNL     1       6.380   0.307   0.000  0.00  0.00    +0.000 A 
ATOM      6  C   UNL     1       4.951   0.307   0.000  0.00  0.00    +0.000 A 
ATOM      7  C   UNL     1       5.665   0.719   0.000  0.00  0.00    +0.000 A 
ENDROOT
BRANCH   5  11
ATOM      8  O   UNL     1       7.094   1.544   0.000  0.00  0.00    +0.000 OA
ATOM      9  O   UNL     1       9.238   0.307   0.000  0.00  0.00    +0.000 OA
ATOM     10  O   UNL     1       9.984   1.542   0.000  0.00  0.00    +0.000 OA
ATOM     11  C   UNL     1       7.094   0.719   0.000  0.00  0.00    +0.000 A 
ATOM     12  C   UNL     1       7.809   0.307   0.000  0.00  0.00    +0.000 A 
ATOM     13  C   UNL     1       8.523   1.544   0.000  0.00  0.00    +0.000 A 
ATOM     14  C   UNL     1       7.809   1.957   0.000  0.00  0.00    +0.000 A 
ATOM     15  C   UNL     1       8.523   0.719   0.000  0.00  0.00    +0.000 A 
ATOM     16  C   UNL     1       9.274   1.963   0.000  0.00  0.00    +0.000 A 
ATOM     17  C   UNL     1       7.795   2.816   0.000  0.00  0.00    +0.000 A 
ATOM     18  C   UNL     1       9.281   2.822   0.000  0.00  0.00    +0.000 A 
ATOM     19  C   UNL     1       8.536   3.252   0.000  0.00  0.00    +0.000 A 
BRANCH  12  20
ATOM     20  O   UNL     1       7.809  -0.518   0.000  0.00  0.00    +0.000 OA
ATOM     21  C   UNL     1       8.523  -0.931   0.000  0.00  0.00    +0.000 C 
ENDBRANCH  12  20
BRANCH  18  22
ATOM     22  O   UNL     1       9.997   3.232   0.000  0.00  0.00    +0.000 OA
ATOM     23  C   UNL     1      10.000   4.057   0.000  0.00  0.00    +0.000 C 
ENDBRANCH  18  22
BRANCH  19  24
ATOM     24  O   UNL     1       8.533   4.077   0.000  0.00  0.00    +0.000 OA
ATOM     25  C   UNL     1       7.817   4.486   0.000  0.00  0.00    +0.000 C 
ENDBRANCH  19  24
ENDBRANCH   5  11
BRANCH   4  26
ATOM     26  O   UNL     1       4.236  -0.931   0.000  0.00  0.00    +0.000 OA
ATOM     27  C   UNL     1       3.522  -0.518   0.000  0.00  0.00    +0.000 C 
ENDBRANCH   4  26
BRANCH   2  28
ATOM     28  O   UNL     1       5.665  -1.756   0.000  0.00  0.00    +0.000 OA
BRANCH  28  37
ATOM     29  O   UNL     1       4.236  -1.756   0.000  0.00  0.00    +0.000 OA
ATOM     30  O   UNL     1       4.236  -4.231   0.000  0.00  0.00    +0.000 OA
ATOM     31  O   UNL     1       2.808  -3.406   0.000  0.00  0.00    +0.000 OA
ATOM     32  O   UNL     1       5.665  -3.406   0.000  0.00  0.00    +0.000 OA
ATOM     33  C   UNL     1       4.236  -3.406   0.000  0.00  0.00    +0.000 C 
ATOM     34  C   UNL     1       3.522  -2.993   0.000  0.00  0.00    +0.000 C 
ATOM     35  C   UNL     1       4.951  -2.993   0.000  0.00  0.00    +0.000 C 
ATOM     36  C   UNL     1       3.522  -2.168   0.000  0.00  0.00    +0.000 C 
ATOM     37  C   UNL     1       4.951  -2.168   0.000  0.00  0.00    +0.000 C 
BRANCH  36  39
ATOM     38  O   UNL     1       2.093  -2.168   0.000  0.00  0.00    +0.000 OA
ATOM     39  C   UNL     1       2.808  -1.756   0.000  0.00  0.00    +0.000 C 
ENDBRANCH  36  39
ENDBRANCH  28  37
ENDBRANCH   2  28
TORSDOF 8
