REMARK  Name = 44258007
REMARK  11 active torsions:
REMARK  status: ('A' for Active; 'I' for Inactive)
REMARK    1  A    between atoms: O_3  and  C_26
REMARK    2  A    between atoms: O_3  and  C_30
REMARK    3  A    between atoms: O_6  and  C_31
REMARK    4  A    between atoms: O_6  and  C_33
REMARK    5  A    between atoms: O_11  and  C_32
REMARK    6  A    between atoms: O_11  and  C_36
REMARK    7  A    between atoms: C_21  and  C_30
REMARK    8  A    between atoms: C_29  and  C_32
REMARK    9  A    between atoms: C_34  and  C_38
REMARK   10  A    between atoms: C_36  and  C_41
REMARK   11  A    between atoms: C_48  and  C_51
REMARK                            x       y       z     vdW  Elec       q    Type
REMARK                         _______ _______ _______ _____ _____    ______ ____
ROOT
ATOM      1  O   UNL     1      11.381  -0.206   0.000  0.00  0.00    +0.000 OA
ATOM      2  O   UNL     1      12.096  -2.269   0.000  0.00  0.00    +0.000 OA
ATOM      3  O   UNL     1      13.524  -1.444   0.000  0.00  0.00    +0.000 OA
ATOM      4  O   UNL     1      13.524   0.206   0.000  0.00  0.00    +0.000 OA
ATOM      5  C   UNL     1      11.381  -1.031   0.000  0.00  0.00    +0.000 C 
ATOM      6  C   UNL     1      12.096  -1.444   0.000  0.00  0.00    +0.000 C 
ATOM      7  C   UNL     1      12.810  -1.031   0.000  0.00  0.00    +0.000 C 
ATOM      8  C   UNL     1      12.810  -0.206   0.000  0.00  0.00    +0.000 C 
ATOM      9  C   UNL     1      12.096   0.206   0.000  0.00  0.00    +0.000 C 
ENDROOT
BRANCH   9  10
ATOM     10  O   UNL     1      12.096   1.031   0.000  0.00  0.00    +0.000 OA
BRANCH  10  15
ATOM     11  O   UNL     1      10.667   2.681   0.000  0.00  0.00    +0.000 OA
ATOM     12  O   UNL     1      10.667   0.206   0.000  0.00  0.00    +0.000 OA
ATOM     13  O   UNL     1       9.224   0.178   0.000  0.00  0.00    +0.000 OA
ATOM     14  O   UNL     1       7.754   2.701   0.000  0.00  0.00    +0.000 OA
ATOM     15  C   UNL     1      11.381   1.444   0.000  0.00  0.00    +0.000 A 
ATOM     16  C   UNL     1      11.381   2.269   0.000  0.00  0.00    +0.000 A 
ATOM     17  C   UNL     1      10.667   1.031   0.000  0.00  0.00    +0.000 A 
ATOM     18  C   UNL     1       9.952   1.444   0.000  0.00  0.00    +0.000 A 
ATOM     19  C   UNL     1       9.952   2.269   0.000  0.00  0.00    +0.000 A 
ATOM     20  C   UNL     1       9.215   1.003   0.000  0.00  0.00    +0.000 A 
ATOM     21  C   UNL     1       9.215   2.710   0.000  0.00  0.00    +0.000 A 
ATOM     22  C   UNL     1       8.467   1.427   0.000  0.00  0.00    +0.000 A 
ATOM     23  C   UNL     1       8.467   2.286   0.000  0.00  0.00    +0.000 A 
BRANCH  16  26
ATOM     24  O   UNL     1      12.810   4.744   0.000  0.00  0.00    +0.000 OA
ATOM     25  O   UNL     1      14.239   3.919   0.000  0.00  0.00    +0.000 OA
ATOM     26  C   UNL     1      12.096   2.681   0.000  0.00  0.00    +0.000 A 
ATOM     27  C   UNL     1      12.096   3.506   0.000  0.00  0.00    +0.000 A 
ATOM     28  C   UNL     1      12.810   2.269   0.000  0.00  0.00    +0.000 A 
ATOM     29  C   UNL     1      12.810   3.919   0.000  0.00  0.00    +0.000 A 
ATOM     30  C   UNL     1      13.524   2.681   0.000  0.00  0.00    +0.000 A 
ATOM     31  C   UNL     1      13.524   3.506   0.000  0.00  0.00    +0.000 A 
ENDBRANCH  16  26
ENDBRANCH  10  15
ENDBRANCH   9  10
BRANCH   5  32
ATOM     32  C   UNL     1      10.667  -1.444   0.000  0.00  0.00    +0.000 C 
BRANCH  32  33
ATOM     33  O   UNL     1      10.667  -2.269   0.000  0.00  0.00    +0.000 OA
BRANCH  33  40
ATOM     34  O   UNL     1       9.238  -2.269   0.000  0.00  0.00    +0.000 OA
ATOM     35  O   UNL     1      10.667  -3.919   0.000  0.00  0.00    +0.000 OA
ATOM     36  O   UNL     1       9.238  -4.744   0.000  0.00  0.00    +0.000 OA
ATOM     37  O   UNL     1       7.809  -3.919   0.000  0.00  0.00    +0.000 OA
ATOM     38  C   UNL     1       9.952  -3.506   0.000  0.00  0.00    +0.000 C 
ATOM     39  C   UNL     1       9.238  -3.919   0.000  0.00  0.00    +0.000 C 
ATOM     40  C   UNL     1       9.952  -2.681   0.000  0.00  0.00    +0.000 C 
ATOM     41  C   UNL     1       8.523  -3.506   0.000  0.00  0.00    +0.000 C 
ATOM     42  C   UNL     1       8.523  -2.681   0.000  0.00  0.00    +0.000 C 
BRANCH  42  43
ATOM     43  C   UNL     1       7.809  -2.269   0.000  0.00  0.00    +0.000 C 
BRANCH  43  44
ATOM     44  O   UNL     1       7.094  -2.681   0.000  0.00  0.00    +0.000 OA
BRANCH  44  46
ATOM     45  O   UNL     1       6.380  -1.444   0.000  0.00  0.00    +0.000 OA
ATOM     46  C   UNL     1       6.380  -2.269   0.000  0.00  0.00    +0.000 C 
BRANCH  46  47
ATOM     47  C   UNL     1       5.665  -2.681   0.000  0.00  0.00    +0.000 C 
ATOM     48  C   UNL     1       4.951  -2.269   0.000  0.00  0.00    +0.000 C 
BRANCH  48  51
ATOM     49  O   UNL     1       3.522  -4.744   0.000  0.00  0.00    +0.000 OA
ATOM     50  O   UNL     1       2.093  -3.919   0.000  0.00  0.00    +0.000 OA
ATOM     51  C   UNL     1       4.236  -2.681   0.000  0.00  0.00    +0.000 A 
ATOM     52  C   UNL     1       4.236  -3.506   0.000  0.00  0.00    +0.000 A 
ATOM     53  C   UNL     1       3.522  -2.269   0.000  0.00  0.00    +0.000 A 
ATOM     54  C   UNL     1       3.522  -3.919   0.000  0.00  0.00    +0.000 A 
ATOM     55  C   UNL     1       2.808  -2.681   0.000  0.00  0.00    +0.000 A 
ATOM     56  C   UNL     1       2.808  -3.506   0.000  0.00  0.00    +0.000 A 
ENDBRANCH  48  51
ENDBRANCH  46  47
ENDBRANCH  44  46
ENDBRANCH  43  44
ENDBRANCH  42  43
ENDBRANCH  33  40
ENDBRANCH  32  33
ENDBRANCH   5  32
TORSDOF 11
