REMARK  Name = 44258452
REMARK  10 active torsions:
REMARK  status: ('A' for Active; 'I' for Inactive)
REMARK    1  A    between atoms: O_3  and  C_22
REMARK    2  A    between atoms: O_3  and  C_26
REMARK    3  A    between atoms: O_4  and  C_19
REMARK    4  A    between atoms: O_4  and  C_30
REMARK    5  A    between atoms: O_8  and  C_27
REMARK    6  A    between atoms: O_8  and  C_29
REMARK    7  A    between atoms: O_12  and  C_31
REMARK    8  A    between atoms: O_16  and  C_46
REMARK    9  A    between atoms: C_17  and  C_26
REMARK   10  A    between atoms: C_38  and  C_41
REMARK                            x       y       z     vdW  Elec       q    Type
REMARK                         _______ _______ _______ _____ _____    ______ ____
ROOT
ATOM      1  O   UNL     1       6.380  -1.474   0.000  0.00  0.00    +0.000 OA
ATOM      2  O   UNL     1       4.951   0.176   0.000  0.00  0.00    +0.000 OA
ATOM      3  O   UNL     1       6.380   1.001   0.000  0.00  0.00    +0.000 OA
ATOM      4  O   UNL     1       7.809   0.176   0.000  0.00  0.00    +0.000 OA
ATOM      5  C   UNL     1       5.665  -1.061   0.000  0.00  0.00    +0.000 C 
ATOM      6  C   UNL     1       5.665  -0.236   0.000  0.00  0.00    +0.000 C 
ATOM      7  C   UNL     1       6.380   0.176   0.000  0.00  0.00    +0.000 C 
ATOM      8  C   UNL     1       7.094  -0.236   0.000  0.00  0.00    +0.000 C 
ATOM      9  C   UNL     1       7.094  -1.061   0.000  0.00  0.00    +0.000 C 
ENDROOT
BRANCH   9  10
ATOM     10  O   UNL     1       7.809  -1.474   0.000  0.00  0.00    +0.000 OA
BRANCH  10  14
ATOM     11  O   UNL     1       9.224   1.036   0.000  0.00  0.00    +0.000 OA
ATOM     12  O   UNL     1      10.667  -1.474   0.000  0.00  0.00    +0.000 OA
ATOM     13  O   UNL     1      11.413  -0.239   0.000  0.00  0.00    +0.000 OA
ATOM     14  C   UNL     1       8.523  -1.061   0.000  0.00  0.00    +0.000 A 
ATOM     15  C   UNL     1       9.238  -1.474   0.000  0.00  0.00    +0.000 A 
ATOM     16  C   UNL     1       8.523  -0.236   0.000  0.00  0.00    +0.000 A 
ATOM     17  C   UNL     1       9.238   0.176   0.000  0.00  0.00    +0.000 A 
ATOM     18  C   UNL     1       9.952  -1.061   0.000  0.00  0.00    +0.000 A 
ATOM     19  C   UNL     1       9.952  -0.236   0.000  0.00  0.00    +0.000 A 
ATOM     20  C   UNL     1      10.703   0.182   0.000  0.00  0.00    +0.000 A 
ATOM     21  C   UNL     1       9.965   1.471   0.000  0.00  0.00    +0.000 A 
ATOM     22  C   UNL     1      10.710   1.041   0.000  0.00  0.00    +0.000 A 
BRANCH  21  23
ATOM     23  C   UNL     1       9.962   2.296   0.000  0.00  0.00    +0.000 A 
ATOM     24  C   UNL     1      10.675   2.711   0.000  0.00  0.00    +0.000 A 
ATOM     25  C   UNL     1       9.246   2.706   0.000  0.00  0.00    +0.000 A 
ATOM     26  C   UNL     1      10.672   3.536   0.000  0.00  0.00    +0.000 A 
ATOM     27  C   UNL     1       9.243   3.531   0.000  0.00  0.00    +0.000 A 
ATOM     28  C   UNL     1       9.956   3.946   0.000  0.00  0.00    +0.000 A 
BRANCH  28  29
ATOM     29  O   UNL     1       9.953   4.771   0.000  0.00  0.00    +0.000 OA
ATOM     30  C   UNL     1      10.665   5.186   0.000  0.00  0.00    +0.000 C 
ENDBRANCH  28  29
ENDBRANCH  21  23
BRANCH  15  31
ATOM     31  O   UNL     1       9.238  -2.299   0.000  0.00  0.00    +0.000 OA
ATOM     32  C   UNL     1       9.952  -2.711   0.000  0.00  0.00    +0.000 C 
ENDBRANCH  15  31
ENDBRANCH  10  14
ENDBRANCH   9  10
BRANCH   5  33
ATOM     33  C   UNL     1       4.951  -1.474   0.000  0.00  0.00    +0.000 C 
BRANCH  33  34
ATOM     34  O   UNL     1       4.951  -2.299   0.000  0.00  0.00    +0.000 OA
BRANCH  34  40
ATOM     35  O   UNL     1       3.522  -2.299   0.000  0.00  0.00    +0.000 OA
ATOM     36  O   UNL     1       3.522  -4.774   0.000  0.00  0.00    +0.000 OA
ATOM     37  O   UNL     1       2.093  -3.949   0.000  0.00  0.00    +0.000 OA
ATOM     38  C   UNL     1       4.236  -3.536   0.000  0.00  0.00    +0.000 C 
ATOM     39  C   UNL     1       3.522  -3.949   0.000  0.00  0.00    +0.000 C 
ATOM     40  C   UNL     1       4.236  -2.711   0.000  0.00  0.00    +0.000 C 
ATOM     41  C   UNL     1       2.808  -3.536   0.000  0.00  0.00    +0.000 C 
ATOM     42  C   UNL     1       2.808  -2.711   0.000  0.00  0.00    +0.000 C 
ATOM     43  C   UNL     1       2.093  -2.299   0.000  0.00  0.00    +0.000 C 
BRANCH  38  44
ATOM     44  O   UNL     1       4.951  -3.949   0.000  0.00  0.00    +0.000 OA
BRANCH  44  46
ATOM     45  O   UNL     1       4.236  -5.186   0.000  0.00  0.00    +0.000 OA
ATOM     46  C   UNL     1       4.951  -4.774   0.000  0.00  0.00    +0.000 C 
ATOM     47  C   UNL     1       5.665  -5.186   0.000  0.00  0.00    +0.000 C 
ENDBRANCH  44  46
ENDBRANCH  38  44
ENDBRANCH  34  40
ENDBRANCH  33  34
ENDBRANCH   5  33
TORSDOF 10
