REMARK  Name = 44259825
REMARK  10 active torsions:
REMARK  status: ('A' for Active; 'I' for Inactive)
REMARK    1  A    between atoms: O_3  and  C_27
REMARK    2  A    between atoms: O_3  and  C_31
REMARK    3  A    between atoms: O_6  and  C_28
REMARK    4  A    between atoms: O_6  and  C_32
REMARK    5  A    between atoms: O_14  and  C_34
REMARK    6  A    between atoms: O_16  and  C_36
REMARK    7  A    between atoms: O_17  and  C_45
REMARK    8  A    between atoms: C_24  and  C_29
REMARK    9  A    between atoms: C_25  and  C_30
REMARK   10  A    between atoms: C_39  and  C_41
REMARK                            x       y       z     vdW  Elec       q    Type
REMARK                         _______ _______ _______ _____ _____    ______ ____
ROOT
ATOM      1  O   UNL     1       5.688  -0.180   0.000  0.00  0.00    +0.000 OA
ATOM      2  O   UNL     1       7.125  -2.686   0.000  0.00  0.00    +0.000 OA
ATOM      3  O   UNL     1       7.827  -1.426   0.000  0.00  0.00    +0.000 OA
ATOM      4  C   UNL     1       5.665  -2.712   0.000  0.00  0.00    +0.000 A 
ATOM      5  C   UNL     1       6.408  -2.280   0.000  0.00  0.00    +0.000 A 
ATOM      6  C   UNL     1       4.923  -2.280   0.000  0.00  0.00    +0.000 A 
ATOM      7  C   UNL     1       6.398  -1.420   0.000  0.00  0.00    +0.000 A 
ATOM      8  C   UNL     1       5.685  -1.005   0.000  0.00  0.00    +0.000 A 
ATOM      9  C   UNL     1       4.933  -1.420   0.000  0.00  0.00    +0.000 A 
ATOM     10  C   UNL     1       6.404   0.230   0.000  0.00  0.00    +0.000 A 
ATOM     11  C   UNL     1       7.114  -1.010   0.000  0.00  0.00    +0.000 A 
ATOM     12  C   UNL     1       7.117  -0.185   0.000  0.00  0.00    +0.000 A 
ENDROOT
BRANCH  10  16
ATOM     13  C   UNL     1       6.414   2.705   0.000  0.00  0.00    +0.000 A 
ATOM     14  C   UNL     1       7.127   2.289   0.000  0.00  0.00    +0.000 A 
ATOM     15  C   UNL     1       5.698   2.295   0.000  0.00  0.00    +0.000 A 
ATOM     16  C   UNL     1       6.407   1.055   0.000  0.00  0.00    +0.000 A 
ATOM     17  C   UNL     1       7.123   1.464   0.000  0.00  0.00    +0.000 A 
ATOM     18  C   UNL     1       5.695   1.470   0.000  0.00  0.00    +0.000 A 
BRANCH  14  19
ATOM     19  O   UNL     1       7.843   2.699   0.000  0.00  0.00    +0.000 OA
ATOM     20  C   UNL     1       8.556   2.284   0.000  0.00  0.00    +0.000 C 
ENDBRANCH  14  19
BRANCH  13  21
ATOM     21  O   UNL     1       6.417   3.530   0.000  0.00  0.00    +0.000 OA
BRANCH  21  30
ATOM     22  O   UNL     1       4.988   3.535   0.000  0.00  0.00    +0.000 OA
ATOM     23  O   UNL     1       3.566   5.191   0.000  0.00  0.00    +0.000 OA
ATOM     24  O   UNL     1       4.998   6.010   0.000  0.00  0.00    +0.000 OA
ATOM     25  O   UNL     1       6.423   5.180   0.000  0.00  0.00    +0.000 OA
ATOM     26  C   UNL     1       4.278   4.776   0.000  0.00  0.00    +0.000 C 
ATOM     27  C   UNL     1       4.994   5.185   0.000  0.00  0.00    +0.000 C 
ATOM     28  C   UNL     1       4.275   3.951   0.000  0.00  0.00    +0.000 C 
ATOM     29  C   UNL     1       5.707   4.770   0.000  0.00  0.00    +0.000 C 
ATOM     30  C   UNL     1       5.704   3.945   0.000  0.00  0.00    +0.000 C 
BRANCH  28  32
ATOM     31  O   UNL     1       2.846   3.956   0.000  0.00  0.00    +0.000 OA
ATOM     32  C   UNL     1       3.559   3.541   0.000  0.00  0.00    +0.000 C 
ENDBRANCH  28  32
ENDBRANCH  21  30
ENDBRANCH  13  21
ENDBRANCH  10  16
BRANCH   6  33
ATOM     33  O   UNL     1       4.205  -2.686   0.000  0.00  0.00    +0.000 OA
ATOM     34  C   UNL     1       3.494  -2.268   0.000  0.00  0.00    +0.000 C 
ENDBRANCH   6  33
BRANCH  12  35
ATOM     35  O   UNL     1       7.833   0.224   0.000  0.00  0.00    +0.000 OA
ATOM     36  C   UNL     1       8.546  -0.191   0.000  0.00  0.00    +0.000 C 
ENDBRANCH  12  35
BRANCH   4  37
ATOM     37  O   UNL     1       5.665  -3.537   0.000  0.00  0.00    +0.000 OA
BRANCH  37  46
ATOM     38  O   UNL     1       4.236  -3.537   0.000  0.00  0.00    +0.000 OA
ATOM     39  O   UNL     1       4.236  -6.012   0.000  0.00  0.00    +0.000 OA
ATOM     40  O   UNL     1       2.808  -5.187   0.000  0.00  0.00    +0.000 OA
ATOM     41  O   UNL     1       5.665  -5.187   0.000  0.00  0.00    +0.000 OA
ATOM     42  C   UNL     1       4.236  -5.187   0.000  0.00  0.00    +0.000 C 
ATOM     43  C   UNL     1       3.522  -4.774   0.000  0.00  0.00    +0.000 C 
ATOM     44  C   UNL     1       4.951  -4.774   0.000  0.00  0.00    +0.000 C 
ATOM     45  C   UNL     1       3.522  -3.950   0.000  0.00  0.00    +0.000 C 
ATOM     46  C   UNL     1       4.951  -3.950   0.000  0.00  0.00    +0.000 C 
BRANCH  45  48
ATOM     47  O   UNL     1       2.093  -3.950   0.000  0.00  0.00    +0.000 OA
ATOM     48  C   UNL     1       2.808  -3.537   0.000  0.00  0.00    +0.000 C 
ENDBRANCH  45  48
ENDBRANCH  37  46
ENDBRANCH   4  37
TORSDOF 10
