REMARK  Name = 131835908
REMARK  11 active torsions:
REMARK  status: ('A' for Active; 'I' for Inactive)
REMARK    1  A    between atoms: O_2  and  C_17
REMARK    2  A    between atoms: O_2  and  C_19
REMARK    3  A    between atoms: C_16  and  C_18
REMARK    4  A    between atoms: C_22  and  C_23
REMARK    5  A    between atoms: C_24  and  C_29
REMARK    6  A    between atoms: C_29  and  C_34
REMARK    7  A    between atoms: C_31  and  C_32
REMARK    8  A    between atoms: C_32  and  C_39
REMARK    9  A    between atoms: C_36  and  C_38
REMARK   10  A    between atoms: C_38  and  C_40
REMARK   11  A    between atoms: C_40  and  C_43
REMARK                            x       y       z     vdW  Elec       q    Type
REMARK                         _______ _______ _______ _____ _____    ______ ____
ROOT
ATOM      1  O   UNL     1       8.795   1.416   0.000  0.00  0.00    +0.000 OA
ATOM      2  O   UNL     1       6.651   2.654   0.000  0.00  0.00    +0.000 OA
ATOM      3  O   UNL     1      10.268   3.928   0.000  0.00  0.00    +0.000 OA
ATOM      4  O   UNL     1       8.805   4.773   0.000  0.00  0.00    +0.000 OA
ATOM      5  C   UNL     1       8.080   1.004   0.000  0.00  0.00    +0.000 A 
ATOM      6  C   UNL     1       7.366   1.416   0.000  0.00  0.00    +0.000 A 
ATOM      7  C   UNL     1       8.795   2.241   0.000  0.00  0.00    +0.000 A 
ATOM      8  C   UNL     1       8.080   2.654   0.000  0.00  0.00    +0.000 A 
ATOM      9  C   UNL     1       7.366   2.241   0.000  0.00  0.00    +0.000 A 
ATOM     10  C   UNL     1       9.546   2.659   0.000  0.00  0.00    +0.000 A 
ATOM     11  C   UNL     1       8.067   3.513   0.000  0.00  0.00    +0.000 A 
ATOM     12  C   UNL     1       9.552   3.518   0.000  0.00  0.00    +0.000 A 
ATOM     13  C   UNL     1       8.808   3.948   0.000  0.00  0.00    +0.000 A 
ENDROOT
BRANCH   5  18
ATOM     14  O   UNL     1       6.651   0.178   0.000  0.00  0.00    +0.000 OA
ATOM     15  C   UNL     1       8.080  -1.472   0.000  0.00  0.00    +0.000 A 
ATOM     16  C   UNL     1       7.366  -1.059   0.000  0.00  0.00    +0.000 A 
ATOM     17  C   UNL     1       8.795  -1.059   0.000  0.00  0.00    +0.000 A 
ATOM     18  C   UNL     1       8.080   0.178   0.000  0.00  0.00    +0.000 A 
ATOM     19  C   UNL     1       7.366  -0.234   0.000  0.00  0.00    +0.000 A 
ATOM     20  C   UNL     1       8.795  -0.234   0.000  0.00  0.00    +0.000 A 
BRANCH  15  21
ATOM     21  O   UNL     1       8.080  -2.296   0.000  0.00  0.00    +0.000 OA
BRANCH  21  30
ATOM     22  O   UNL     1       6.651  -2.296   0.000  0.00  0.00    +0.000 OA
ATOM     23  O   UNL     1       6.651  -4.771   0.000  0.00  0.00    +0.000 OA
ATOM     24  O   UNL     1       5.222  -3.946   0.000  0.00  0.00    +0.000 OA
ATOM     25  O   UNL     1       8.080  -3.946   0.000  0.00  0.00    +0.000 OA
ATOM     26  C   UNL     1       6.651  -3.946   0.000  0.00  0.00    +0.000 C 
ATOM     27  C   UNL     1       5.937  -3.534   0.000  0.00  0.00    +0.000 C 
ATOM     28  C   UNL     1       7.366  -3.534   0.000  0.00  0.00    +0.000 C 
ATOM     29  C   UNL     1       5.937  -2.709   0.000  0.00  0.00    +0.000 C 
ATOM     30  C   UNL     1       7.366  -2.709   0.000  0.00  0.00    +0.000 C 
BRANCH  29  33
ATOM     31  O   UNL     1       4.508  -2.709   0.000  0.00  0.00    +0.000 OA
ATOM     32  O   UNL     1       5.222  -1.472   0.000  0.00  0.00    +0.000 OA
ATOM     33  C   UNL     1       5.222  -2.296   0.000  0.00  0.00    +0.000 C 
ENDBRANCH  29  33
ENDBRANCH  21  30
ENDBRANCH  15  21
ENDBRANCH   5  18
BRANCH   6  34
ATOM     34  C   UNL     1       6.651   1.004   0.000  0.00  0.00    +0.000 C 
BRANCH  34  35
ATOM     35  C   UNL     1       5.937   1.416   0.000  0.00  0.00    +0.000 C 
ATOM     36  C   UNL     1       5.222   1.004   0.000  0.00  0.00    +0.000 C 
ATOM     37  C   UNL     1       5.222   0.178   0.000  0.00  0.00    +0.000 C 
BRANCH  36  38
ATOM     38  C   UNL     1       4.508   1.416   0.000  0.00  0.00    +0.000 C 
BRANCH  38  39
ATOM     39  C   UNL     1       3.793   1.004   0.000  0.00  0.00    +0.000 C 
BRANCH  39  40
ATOM     40  C   UNL     1       3.079   1.416   0.000  0.00  0.00    +0.000 C 
ATOM     41  C   UNL     1       2.365   1.004   0.000  0.00  0.00    +0.000 C 
ATOM     42  C   UNL     1       1.650   1.416   0.000  0.00  0.00    +0.000 C 
ATOM     43  C   UNL     1       2.365   0.178   0.000  0.00  0.00    +0.000 C 
ENDBRANCH  39  40
ENDBRANCH  38  39
ENDBRANCH  36  38
ENDBRANCH  34  35
ENDBRANCH   6  34
BRANCH  10  44
ATOM     44  C   UNL     1      10.255   2.239   0.000  0.00  0.00    +0.000 C 
BRANCH  44  45
ATOM     45  C   UNL     1      10.974   2.643   0.000  0.00  0.00    +0.000 C 
ATOM     46  C   UNL     1      11.684   2.222   0.000  0.00  0.00    +0.000 C 
ATOM     47  C   UNL     1      12.403   2.626   0.000  0.00  0.00    +0.000 C 
ATOM     48  C   UNL     1      11.674   1.397   0.000  0.00  0.00    +0.000 C 
ENDBRANCH  44  45
ENDBRANCH  10  44
TORSDOF 11
