REMARK  Name = 131836420
REMARK  8 active torsions:
REMARK  status: ('A' for Active; 'I' for Inactive)
REMARK    1  A    between atoms: O_2  and  C_18
REMARK    2  A    between atoms: O_2  and  C_20
REMARK    3  A    between atoms: O_13  and  C_34
REMARK    4  A    between atoms: C_17  and  C_19
REMARK    5  A    between atoms: C_23  and  C_26
REMARK    6  A    between atoms: C_26  and  C_27
REMARK    7  A    between atoms: C_27  and  C_28
REMARK    8  A    between atoms: C_28  and  C_29
REMARK                            x       y       z     vdW  Elec       q    Type
REMARK                         _______ _______ _______ _____ _____    ______ ____
ROOT
ATOM      1  O   UNL     1       7.094  -1.522   0.000  0.00  0.00    +0.000 OA
ATOM      2  O   UNL     1       4.236  -1.522   0.000  0.00  0.00    +0.000 OA
ATOM      3  O   UNL     1       4.236   0.128   0.000  0.00  0.00    +0.000 OA
ATOM      4  O   UNL     1       5.665   0.953   0.000  0.00  0.00    +0.000 OA
ATOM      5  C   UNL     1       5.665  -1.522   0.000  0.00  0.00    +0.000 A 
ATOM      6  C   UNL     1       6.380  -1.110   0.000  0.00  0.00    +0.000 A 
ATOM      7  C   UNL     1       4.951  -1.110   0.000  0.00  0.00    +0.000 A 
ATOM      8  C   UNL     1       6.380  -0.285   0.000  0.00  0.00    +0.000 A 
ATOM      9  C   UNL     1       4.951  -0.285   0.000  0.00  0.00    +0.000 A 
ATOM     10  C   UNL     1       5.665   0.128   0.000  0.00  0.00    +0.000 A 
ENDROOT
BRANCH   8  12
ATOM     11  O   UNL     1       7.809  -0.285   0.000  0.00  0.00    +0.000 OA
ATOM     12  C   UNL     1       7.094   0.128   0.000  0.00  0.00    +0.000 C 
BRANCH  12  13
ATOM     13  C   UNL     1       7.094   0.953   0.000  0.00  0.00    +0.000 C 
BRANCH  13  14
ATOM     14  C   UNL     1       7.809   1.365   0.000  0.00  0.00    +0.000 C 
BRANCH  14  15
ATOM     15  C   UNL     1       7.809   2.190   0.000  0.00  0.00    +0.000 A 
ATOM     16  C   UNL     1       7.094   2.603   0.000  0.00  0.00    +0.000 A 
ATOM     17  C   UNL     1       8.523   2.603   0.000  0.00  0.00    +0.000 A 
ATOM     18  C   UNL     1       7.094   3.428   0.000  0.00  0.00    +0.000 A 
ATOM     19  C   UNL     1       8.523   3.428   0.000  0.00  0.00    +0.000 A 
ATOM     20  C   UNL     1       7.809   3.840   0.000  0.00  0.00    +0.000 A 
BRANCH  20  21
ATOM     21  O   UNL     1       7.809   4.665   0.000  0.00  0.00    +0.000 OA
ATOM     22  C   UNL     1       8.523   5.078   0.000  0.00  0.00    +0.000 C 
ENDBRANCH  20  21
ENDBRANCH  14  15
ENDBRANCH  13  14
ENDBRANCH  12  13
ENDBRANCH   8  12
BRANCH   5  23
ATOM     23  O   UNL     1       5.665  -2.347   0.000  0.00  0.00    +0.000 OA
BRANCH  23  32
ATOM     24  O   UNL     1       4.236  -2.347   0.000  0.00  0.00    +0.000 OA
ATOM     25  O   UNL     1       4.236  -4.822   0.000  0.00  0.00    +0.000 OA
ATOM     26  O   UNL     1       5.665  -3.997   0.000  0.00  0.00    +0.000 OA
ATOM     27  O   UNL     1       2.808  -3.997   0.000  0.00  0.00    +0.000 OA
ATOM     28  C   UNL     1       4.236  -3.997   0.000  0.00  0.00    +0.000 C 
ATOM     29  C   UNL     1       3.522  -3.585   0.000  0.00  0.00    +0.000 C 
ATOM     30  C   UNL     1       4.951  -3.585   0.000  0.00  0.00    +0.000 C 
ATOM     31  C   UNL     1       3.522  -2.760   0.000  0.00  0.00    +0.000 C 
ATOM     32  C   UNL     1       4.951  -2.760   0.000  0.00  0.00    +0.000 C 
BRANCH  31  35
ATOM     33  O   UNL     1       2.093  -2.760   0.000  0.00  0.00    +0.000 OA
ATOM     34  O   UNL     1       2.808  -1.522   0.000  0.00  0.00    +0.000 OA
ATOM     35  C   UNL     1       2.808  -2.347   0.000  0.00  0.00    +0.000 C 
ENDBRANCH  31  35
ENDBRANCH  23  32
ENDBRANCH   5  23
TORSDOF 8
