REMARK  Name = 44257514
REMARK  4 active torsions:
REMARK  status: ('A' for Active; 'I' for Inactive)
REMARK    1  A    between atoms: O_4  and  C_19
REMARK    2  A    between atoms: O_5  and  C_20
REMARK    3  A    between atoms: O_7  and  C_22
REMARK    4  A    between atoms: C_8  and  C_12
REMARK                            x       y       z     vdW  Elec       q    Type
REMARK                         _______ _______ _______ _____ _____    ______ ____
ROOT
ATOM      1  O   UNL     1       5.245  -1.359   0.000  0.00  0.00    +0.000 OA
ATOM      2  O   UNL     1       3.793  -2.155   0.000  0.00  0.00    +0.000 OA
ATOM      3  O   UNL     1       2.364   0.320   0.000  0.00  0.00    +0.000 OA
ATOM      4  C   UNL     1       5.993  -0.075   0.000  0.00  0.00    +0.000 C 
ATOM      5  C   UNL     1       5.245   0.349   0.000  0.00  0.00    +0.000 C 
ATOM      6  C   UNL     1       5.993  -0.935   0.000  0.00  0.00    +0.000 C 
ATOM      7  C   UNL     1       4.508  -0.092   0.000  0.00  0.00    +0.000 A 
ATOM      8  C   UNL     1       4.508  -0.917   0.000  0.00  0.00    +0.000 A 
ATOM      9  C   UNL     1       3.793   0.320   0.000  0.00  0.00    +0.000 A 
ATOM     10  C   UNL     1       3.793  -1.330   0.000  0.00  0.00    +0.000 A 
ATOM     11  C   UNL     1       3.079  -0.092   0.000  0.00  0.00    +0.000 A 
ATOM     12  C   UNL     1       3.079  -0.917   0.000  0.00  0.00    +0.000 A 
ENDROOT
BRANCH   4  14
ATOM     13  O   UNL     1       7.425  -0.895   0.000  0.00  0.00    +0.000 OA
ATOM     14  C   UNL     1       6.706   0.340   0.000  0.00  0.00    +0.000 A 
ATOM     15  C   UNL     1       7.422  -0.070   0.000  0.00  0.00    +0.000 A 
ATOM     16  C   UNL     1       6.703   1.165   0.000  0.00  0.00    +0.000 A 
ATOM     17  C   UNL     1       8.135   0.345   0.000  0.00  0.00    +0.000 A 
ATOM     18  C   UNL     1       7.415   1.580   0.000  0.00  0.00    +0.000 A 
ATOM     19  C   UNL     1       8.132   1.171   0.000  0.00  0.00    +0.000 A 
BRANCH  17  20
ATOM     20  O   UNL     1       8.851  -0.064   0.000  0.00  0.00    +0.000 OA
ATOM     21  C   UNL     1       9.564   0.351   0.000  0.00  0.00    +0.000 C 
ENDBRANCH  17  20
BRANCH  19  22
ATOM     22  O   UNL     1       8.844   1.586   0.000  0.00  0.00    +0.000 OA
ATOM     23  C   UNL     1       8.841   2.411   0.000  0.00  0.00    +0.000 C 
ENDBRANCH  19  22
ENDBRANCH   4  14
BRANCH  12  24
ATOM     24  O   UNL     1       2.364  -1.330   0.000  0.00  0.00    +0.000 OA
ATOM     25  C   UNL     1       1.650  -0.917   0.000  0.00  0.00    +0.000 C 
ENDBRANCH  12  24
TORSDOF 4
