REMARK  Name = 131832323
REMARK  7 active torsions:
REMARK  status: ('A' for Active; 'I' for Inactive)
REMARK    1  A    between atoms: O_3  and  C_15
REMARK    2  A    between atoms: O_3  and  C_17
REMARK    3  A    between atoms: O_9  and  C_27
REMARK    4  A    between atoms: C_14  and  C_16
REMARK    5  A    between atoms: C_28  and  C_34
REMARK    6  A    between atoms: C_32  and  C_35
REMARK    7  A    between atoms: C_35  and  C_36
REMARK                            x       y       z     vdW  Elec       q    Type
REMARK                         _______ _______ _______ _____ _____    ______ ____
ROOT
ATOM      1  C   UNL     1       5.665  -1.692   0.000  0.00  0.00    +0.000 A 
ATOM      2  C   UNL     1       6.380  -1.280   0.000  0.00  0.00    +0.000 A 
ATOM      3  C   UNL     1       4.951  -1.280   0.000  0.00  0.00    +0.000 A 
ATOM      4  C   UNL     1       6.380  -0.455   0.000  0.00  0.00    +0.000 A 
ATOM      5  C   UNL     1       4.951  -0.455   0.000  0.00  0.00    +0.000 A 
ATOM      6  C   UNL     1       5.665  -0.042   0.000  0.00  0.00    +0.000 A 
ENDROOT
BRANCH   6   8
ATOM      7  O   UNL     1       4.951   1.195   0.000  0.00  0.00    +0.000 OA
ATOM      8  C   UNL     1       5.665   0.783   0.000  0.00  0.00    +0.000 C 
BRANCH   8  10
ATOM      9  C   UNL     1       6.380   2.020   0.000  0.00  0.00    +0.000 C 
ATOM     10  C   UNL     1       6.380   1.195   0.000  0.00  0.00    +0.000 C 
BRANCH   9  20
ATOM     11  O   UNL     1       9.274   3.676   0.000  0.00  0.00    +0.000 OA
ATOM     12  C   UNL     1       9.281   4.535   0.000  0.00  0.00    +0.000 C 
ATOM     13  C   UNL     1       8.536   4.965   0.000  0.00  0.00    +0.000 C 
ATOM     14  C   UNL     1       7.809   3.670   0.000  0.00  0.00    +0.000 A 
ATOM     15  C   UNL     1       8.523   3.258   0.000  0.00  0.00    +0.000 A 
ATOM     16  C   UNL     1       9.696   5.248   0.000  0.00  0.00    +0.000 C 
ATOM     17  C   UNL     1      10.106   4.532   0.000  0.00  0.00    +0.000 C 
ATOM     18  C   UNL     1       7.795   4.529   0.000  0.00  0.00    +0.000 C 
ATOM     19  C   UNL     1       7.094   3.258   0.000  0.00  0.00    +0.000 A 
ATOM     20  C   UNL     1       7.094   2.433   0.000  0.00  0.00    +0.000 A 
ATOM     21  C   UNL     1       8.523   2.433   0.000  0.00  0.00    +0.000 A 
ATOM     22  C   UNL     1       7.809   2.020   0.000  0.00  0.00    +0.000 A 
BRANCH  19  23
ATOM     23  O   UNL     1       6.380   3.670   0.000  0.00  0.00    +0.000 OA
ATOM     24  C   UNL     1       6.380   4.495   0.000  0.00  0.00    +0.000 C 
ENDBRANCH  19  23
ENDBRANCH   9  20
ENDBRANCH   8  10
ENDBRANCH   6   8
BRANCH   1  25
ATOM     25  O   UNL     1       5.665  -2.517   0.000  0.00  0.00    +0.000 OA
BRANCH  25  34
ATOM     26  O   UNL     1       4.236  -2.517   0.000  0.00  0.00    +0.000 OA
ATOM     27  O   UNL     1       4.236  -4.992   0.000  0.00  0.00    +0.000 OA
ATOM     28  O   UNL     1       2.808  -4.167   0.000  0.00  0.00    +0.000 OA
ATOM     29  O   UNL     1       5.665  -4.167   0.000  0.00  0.00    +0.000 OA
ATOM     30  C   UNL     1       4.236  -4.167   0.000  0.00  0.00    +0.000 C 
ATOM     31  C   UNL     1       3.522  -3.755   0.000  0.00  0.00    +0.000 C 
ATOM     32  C   UNL     1       4.951  -3.755   0.000  0.00  0.00    +0.000 C 
ATOM     33  C   UNL     1       3.522  -2.930   0.000  0.00  0.00    +0.000 C 
ATOM     34  C   UNL     1       4.951  -2.930   0.000  0.00  0.00    +0.000 C 
BRANCH  33  37
ATOM     35  O   UNL     1       2.093  -2.930   0.000  0.00  0.00    +0.000 OA
ATOM     36  O   UNL     1       2.808  -1.692   0.000  0.00  0.00    +0.000 OA
ATOM     37  C   UNL     1       2.808  -2.517   0.000  0.00  0.00    +0.000 C 
ENDBRANCH  33  37
ENDBRANCH  25  34
ENDBRANCH   1  25
TORSDOF 7
