REMARK  Name = 44259888
REMARK  9 active torsions:
REMARK  status: ('A' for Active; 'I' for Inactive)
REMARK    1  A    between atoms: O_2  and  C_19
REMARK    2  A    between atoms: O_2  and  C_21
REMARK    3  A    between atoms: O_7  and  C_23
REMARK    4  A    between atoms: O_9  and  C_26
REMARK    5  A    between atoms: O_10  and  C_28
REMARK    6  A    between atoms: O_13  and  C_35
REMARK    7  A    between atoms: O_14  and  C_36
REMARK    8  A    between atoms: C_18  and  C_20
REMARK    9  A    between atoms: C_24  and  C_27
REMARK                            x       y       z     vdW  Elec       q    Type
REMARK                         _______ _______ _______ _____ _____    ______ ____
ROOT
ATOM      1  C   UNL     1       5.665  -0.931   0.000  0.00  0.00    +0.000 A 
ATOM      2  C   UNL     1       6.380  -0.518   0.000  0.00  0.00    +0.000 A 
ATOM      3  C   UNL     1       4.951  -0.518   0.000  0.00  0.00    +0.000 A 
ATOM      4  C   UNL     1       6.380   0.307   0.000  0.00  0.00    +0.000 A 
ATOM      5  C   UNL     1       4.951   0.307   0.000  0.00  0.00    +0.000 A 
ATOM      6  C   UNL     1       5.665   0.719   0.000  0.00  0.00    +0.000 A 
ENDROOT
BRANCH   4  10
ATOM      7  O   UNL     1       7.094   1.544   0.000  0.00  0.00    +0.000 OA
ATOM      8  O   UNL     1       9.238   0.307   0.000  0.00  0.00    +0.000 OA
ATOM      9  O   UNL     1       9.984   1.542   0.000  0.00  0.00    +0.000 OA
ATOM     10  C   UNL     1       7.094   0.719   0.000  0.00  0.00    +0.000 A 
ATOM     11  C   UNL     1       7.809   0.307   0.000  0.00  0.00    +0.000 A 
ATOM     12  C   UNL     1       8.523   1.544   0.000  0.00  0.00    +0.000 A 
ATOM     13  C   UNL     1       7.809   1.957   0.000  0.00  0.00    +0.000 A 
ATOM     14  C   UNL     1       8.523   0.719   0.000  0.00  0.00    +0.000 A 
ATOM     15  C   UNL     1       9.274   1.963   0.000  0.00  0.00    +0.000 A 
ATOM     16  C   UNL     1       7.795   2.816   0.000  0.00  0.00    +0.000 A 
ATOM     17  C   UNL     1       9.281   2.822   0.000  0.00  0.00    +0.000 A 
ATOM     18  C   UNL     1       8.536   3.252   0.000  0.00  0.00    +0.000 A 
BRANCH  11  19
ATOM     19  O   UNL     1       7.809  -0.518   0.000  0.00  0.00    +0.000 OA
ATOM     20  C   UNL     1       8.523  -0.931   0.000  0.00  0.00    +0.000 C 
ENDBRANCH  11  19
BRANCH  17  21
ATOM     21  O   UNL     1       9.997   3.232   0.000  0.00  0.00    +0.000 OA
ATOM     22  C   UNL     1      10.000   4.057   0.000  0.00  0.00    +0.000 C 
ENDBRANCH  17  21
BRANCH  18  23
ATOM     23  O   UNL     1       8.533   4.077   0.000  0.00  0.00    +0.000 OA
ATOM     24  C   UNL     1       7.817   4.486   0.000  0.00  0.00    +0.000 C 
ENDBRANCH  18  23
ENDBRANCH   4  10
BRANCH   3  25
ATOM     25  O   UNL     1       4.236  -0.931   0.000  0.00  0.00    +0.000 OA
ATOM     26  C   UNL     1       3.522  -0.518   0.000  0.00  0.00    +0.000 C 
ENDBRANCH   3  25
BRANCH   6  27
ATOM     27  O   UNL     1       5.665   1.544   0.000  0.00  0.00    +0.000 OA
ATOM     28  C   UNL     1       4.951   1.957   0.000  0.00  0.00    +0.000 C 
ENDBRANCH   6  27
BRANCH   1  29
ATOM     29  O   UNL     1       5.665  -1.756   0.000  0.00  0.00    +0.000 OA
BRANCH  29  38
ATOM     30  O   UNL     1       4.236  -1.756   0.000  0.00  0.00    +0.000 OA
ATOM     31  O   UNL     1       4.236  -4.231   0.000  0.00  0.00    +0.000 OA
ATOM     32  O   UNL     1       2.808  -3.406   0.000  0.00  0.00    +0.000 OA
ATOM     33  O   UNL     1       5.665  -3.406   0.000  0.00  0.00    +0.000 OA
ATOM     34  C   UNL     1       4.236  -3.406   0.000  0.00  0.00    +0.000 C 
ATOM     35  C   UNL     1       3.522  -2.993   0.000  0.00  0.00    +0.000 C 
ATOM     36  C   UNL     1       4.951  -2.993   0.000  0.00  0.00    +0.000 C 
ATOM     37  C   UNL     1       3.522  -2.168   0.000  0.00  0.00    +0.000 C 
ATOM     38  C   UNL     1       4.951  -2.168   0.000  0.00  0.00    +0.000 C 
BRANCH  37  40
ATOM     39  O   UNL     1       2.093  -2.168   0.000  0.00  0.00    +0.000 OA
ATOM     40  C   UNL     1       2.808  -1.756   0.000  0.00  0.00    +0.000 C 
ENDBRANCH  37  40
ENDBRANCH  29  38
ENDBRANCH   1  29
TORSDOF 9
