REMARK  Name = 44257844
REMARK  11 active torsions:
REMARK  status: ('A' for Active; 'I' for Inactive)
REMARK    1  A    between atoms: O_3  and  C_18
REMARK    2  A    between atoms: O_3  and  C_31
REMARK    3  A    between atoms: O_5  and  C_22
REMARK    4  A    between atoms: O_5  and  C_30
REMARK    5  A    between atoms: O_9  and  C_27
REMARK    6  A    between atoms: O_9  and  C_32
REMARK    7  A    between atoms: O_11  and  C_28
REMARK    8  A    between atoms: O_11  and  C_35
REMARK    9  A    between atoms: C_20  and  C_28
REMARK   10  A    between atoms: C_25  and  C_29
REMARK   11  A    between atoms: C_42  and  C_43
REMARK                            x       y       z     vdW  Elec       q    Type
REMARK                         _______ _______ _______ _____ _____    ______ ____
ROOT
ATOM      1  O   UNL     1       8.100  -0.302   0.000  0.00  0.00    +0.000 OA
ATOM      2  O   UNL     1       5.211  -0.288   0.000  0.00  0.00    +0.000 OA
ATOM      3  O   UNL     1       5.961   0.944   0.000  0.00  0.00    +0.000 OA
ATOM      4  C   UNL     1       6.651  -2.003   0.000  0.00  0.00    +0.000 A 
ATOM      5  C   UNL     1       7.394  -1.571   0.000  0.00  0.00    +0.000 A 
ATOM      6  C   UNL     1       5.909  -1.571   0.000  0.00  0.00    +0.000 A 
ATOM      7  C   UNL     1       7.384  -0.712   0.000  0.00  0.00    +0.000 A 
ATOM      8  C   UNL     1       6.671  -0.296   0.000  0.00  0.00    +0.000 A 
ATOM      9  C   UNL     1       5.919  -0.712   0.000  0.00  0.00    +0.000 A 
ATOM     10  C   UNL     1       8.103   0.523   0.000  0.00  0.00    +0.000 A 
ATOM     11  C   UNL     1       6.674   0.529   0.000  0.00  0.00    +0.000 A 
ATOM     12  C   UNL     1       7.390   0.938   0.000  0.00  0.00    +0.000 A 
ENDROOT
BRANCH  10  16
ATOM     13  C   UNL     1      10.251   1.752   0.000  0.00  0.00    +0.000 A 
ATOM     14  C   UNL     1       9.538   2.167   0.000  0.00  0.00    +0.000 A 
ATOM     15  C   UNL     1      10.248   0.927   0.000  0.00  0.00    +0.000 A 
ATOM     16  C   UNL     1       8.819   0.933   0.000  0.00  0.00    +0.000 A 
ATOM     17  C   UNL     1       8.822   1.758   0.000  0.00  0.00    +0.000 A 
ATOM     18  C   UNL     1       9.532   0.517   0.000  0.00  0.00    +0.000 A 
BRANCH  13  19
ATOM     19  O   UNL     1      10.967   2.162   0.000  0.00  0.00    +0.000 OA
BRANCH  19  28
ATOM     20  O   UNL     1      11.687   3.397   0.000  0.00  0.00    +0.000 OA
ATOM     21  O   UNL     1      10.980   5.462   0.000  0.00  0.00    +0.000 OA
ATOM     22  O   UNL     1       9.548   4.643   0.000  0.00  0.00    +0.000 OA
ATOM     23  O   UNL     1       9.542   2.993   0.000  0.00  0.00    +0.000 OA
ATOM     24  C   UNL     1      10.977   4.637   0.000  0.00  0.00    +0.000 C 
ATOM     25  C   UNL     1      10.261   4.227   0.000  0.00  0.00    +0.000 C 
ATOM     26  C   UNL     1      11.690   4.222   0.000  0.00  0.00    +0.000 C 
ATOM     27  C   UNL     1      10.258   3.402   0.000  0.00  0.00    +0.000 C 
ATOM     28  C   UNL     1      10.970   2.987   0.000  0.00  0.00    +0.000 C 
BRANCH  26  30
ATOM     29  O   UNL     1      13.119   4.216   0.000  0.00  0.00    +0.000 OA
ATOM     30  C   UNL     1      12.406   4.631   0.000  0.00  0.00    +0.000 C 
ENDBRANCH  26  30
ENDBRANCH  19  28
ENDBRANCH  13  19
ENDBRANCH  10  16
BRANCH   4  31
ATOM     31  O   UNL     1       6.651  -2.829   0.000  0.00  0.00    +0.000 OA
BRANCH  31  39
ATOM     32  O   UNL     1       5.222  -2.829   0.000  0.00  0.00    +0.000 OA
ATOM     33  O   UNL     1       5.222  -5.303   0.000  0.00  0.00    +0.000 OA
ATOM     34  O   UNL     1       6.651  -4.479   0.000  0.00  0.00    +0.000 OA
ATOM     35  C   UNL     1       4.508  -4.066   0.000  0.00  0.00    +0.000 C 
ATOM     36  C   UNL     1       5.222  -4.479   0.000  0.00  0.00    +0.000 C 
ATOM     37  C   UNL     1       4.508  -3.241   0.000  0.00  0.00    +0.000 C 
ATOM     38  C   UNL     1       5.937  -4.066   0.000  0.00  0.00    +0.000 C 
ATOM     39  C   UNL     1       5.937  -3.241   0.000  0.00  0.00    +0.000 C 
BRANCH  35  40
ATOM     40  O   UNL     1       3.793  -4.479   0.000  0.00  0.00    +0.000 OA
BRANCH  40  42
ATOM     41  O   UNL     1       4.508  -5.716   0.000  0.00  0.00    +0.000 OA
ATOM     42  C   UNL     1       3.793  -5.303   0.000  0.00  0.00    +0.000 C 
ATOM     43  C   UNL     1       3.079  -5.716   0.000  0.00  0.00    +0.000 C 
ENDBRANCH  40  42
ENDBRANCH  35  40
BRANCH  37  44
ATOM     44  C   UNL     1       3.793  -2.829   0.000  0.00  0.00    +0.000 C 
BRANCH  44  45
ATOM     45  O   UNL     1       3.079  -3.241   0.000  0.00  0.00    +0.000 OA
BRANCH  45  47
ATOM     46  O   UNL     1       2.364  -2.003   0.000  0.00  0.00    +0.000 OA
ATOM     47  C   UNL     1       2.364  -2.829   0.000  0.00  0.00    +0.000 C 
ATOM     48  C   UNL     1       1.650  -3.241   0.000  0.00  0.00    +0.000 C 
ENDBRANCH  45  47
ENDBRANCH  44  45
ENDBRANCH  37  44
ENDBRANCH  31  39
ENDBRANCH   4  31
TORSDOF 11
