REMARK  Name = 13845909
REMARK  5 active torsions:
REMARK  status: ('A' for Active; 'I' for Inactive)
REMARK    1  A    between atoms: S_1  and  O_3
REMARK    2  A    between atoms: O_3  and  C_20
REMARK    3  A    between atoms: O_4  and  C_19
REMARK    4  A    between atoms: O_7  and  C_24
REMARK    5  A    between atoms: C_14  and  C_18
REMARK                            x       y       z     vdW  Elec       q    Type
REMARK                         _______ _______ _______ _____ _____    ______ ____
ROOT
ATOM      1  O   UNL     1       5.356  -0.144   0.000  0.00  0.00    +0.000 OA
ATOM      2  O   UNL     1       3.904   2.360   0.000  0.00  0.00    +0.000 OA
ATOM      3  O   UNL     1       5.346   2.388   0.000  0.00  0.00    +0.000 OA
ATOM      4  C   UNL     1       4.618   1.122   0.000  0.00  0.00    +0.000 A 
ATOM      5  C   UNL     1       4.618   0.297   0.000  0.00  0.00    +0.000 A 
ATOM      6  C   UNL     1       6.103   0.280   0.000  0.00  0.00    +0.000 A 
ATOM      7  C   UNL     1       3.904   1.535   0.000  0.00  0.00    +0.000 A 
ATOM      8  C   UNL     1       5.356   1.563   0.000  0.00  0.00    +0.000 A 
ATOM      9  C   UNL     1       3.904  -0.115   0.000  0.00  0.00    +0.000 A 
ATOM     10  C   UNL     1       3.189   1.122   0.000  0.00  0.00    +0.000 A 
ATOM     11  C   UNL     1       3.189   0.297   0.000  0.00  0.00    +0.000 A 
ATOM     12  C   UNL     1       6.103   1.139   0.000  0.00  0.00    +0.000 A 
ENDROOT
BRANCH   6  14
ATOM     13  O   UNL     1       8.955  -1.381   0.000  0.00  0.00    +0.000 OA
ATOM     14  C   UNL     1       6.816  -0.135   0.000  0.00  0.00    +0.000 A 
ATOM     15  C   UNL     1       6.813  -0.960   0.000  0.00  0.00    +0.000 A 
ATOM     16  C   UNL     1       7.532   0.275   0.000  0.00  0.00    +0.000 A 
ATOM     17  C   UNL     1       7.526  -1.375   0.000  0.00  0.00    +0.000 A 
ATOM     18  C   UNL     1       8.245  -0.141   0.000  0.00  0.00    +0.000 A 
ATOM     19  C   UNL     1       8.242  -0.966   0.000  0.00  0.00    +0.000 A 
BRANCH  17  20
ATOM     20  O   UNL     1       7.523  -2.200   0.000  0.00  0.00    +0.000 OA
ATOM     21  C   UNL     1       8.236  -2.616   0.000  0.00  0.00    +0.000 C 
ENDBRANCH  17  20
ENDBRANCH   6  14
BRANCH  10  22
ATOM     22  O   UNL     1       2.475   1.535   0.000  0.00  0.00    +0.000 OA
ATOM     23  C   UNL     1       1.760   1.122   0.000  0.00  0.00    +0.000 C 
ENDBRANCH  10  22
BRANCH  11  24
ATOM     24  O   UNL     1       2.475  -0.115   0.000  0.00  0.00    +0.000 OA
BRANCH  24  25
ATOM     25  S   UNL     1       2.475  -0.940   0.000  0.00  0.00    +0.000 S 
ATOM     26  O   UNL     1       2.475  -1.765   0.000  0.00  0.00    +0.000 OA
ATOM     27  O   UNL     1       1.650  -0.940   0.000  0.00  0.00    +0.000 OA
ATOM     28  O   UNL     1       3.300  -0.940   0.000  0.00  0.00    +0.000 OA
ENDBRANCH  24  25
ENDBRANCH  11  24
TORSDOF 5
