REMARK  Name = 44258377
REMARK  4 active torsions:
REMARK  status: ('A' for Active; 'I' for Inactive)
REMARK    1  A    between atoms: O_2  and  C_15
REMARK    2  A    between atoms: O_2  and  C_17
REMARK    3  A    between atoms: O_8  and  C_30
REMARK    4  A    between atoms: C_20  and  C_23
REMARK                            x       y       z     vdW  Elec       q    Type
REMARK                         _______ _______ _______ _____ _____    ______ ____
ROOT
ATOM      1  O   UNL     1       3.522  -1.335   0.000  0.00  0.00    +0.000 OA
ATOM      2  C   UNL     1       4.951  -1.335   0.000  0.00  0.00    +0.000 A 
ATOM      3  C   UNL     1       4.236  -0.922   0.000  0.00  0.00    +0.000 A 
ATOM      4  C   UNL     1       5.665  -0.922   0.000  0.00  0.00    +0.000 A 
ATOM      5  C   UNL     1       4.951   0.316   0.000  0.00  0.00    +0.000 A 
ATOM      6  C   UNL     1       4.236  -0.097   0.000  0.00  0.00    +0.000 A 
ATOM      7  C   UNL     1       5.665  -0.097   0.000  0.00  0.00    +0.000 A 
ENDROOT
BRANCH   5  11
ATOM      8  O   UNL     1       5.665   1.553   0.000  0.00  0.00    +0.000 OA
ATOM      9  O   UNL     1       4.218   4.054   0.000  0.00  0.00    +0.000 OA
ATOM     10  O   UNL     1       3.522   2.791   0.000  0.00  0.00    +0.000 OA
ATOM     11  C   UNL     1       4.951   1.141   0.000  0.00  0.00    +0.000 A 
ATOM     12  C   UNL     1       4.951   2.791   0.000  0.00  0.00    +0.000 A 
ATOM     13  C   UNL     1       5.665   2.378   0.000  0.00  0.00    +0.000 A 
ATOM     14  C   UNL     1       4.236   1.553   0.000  0.00  0.00    +0.000 A 
ATOM     15  C   UNL     1       4.236   2.378   0.000  0.00  0.00    +0.000 A 
ATOM     16  C   UNL     1       4.938   3.650   0.000  0.00  0.00    +0.000 A 
ATOM     17  C   UNL     1       6.416   2.796   0.000  0.00  0.00    +0.000 A 
ATOM     18  C   UNL     1       6.423   3.655   0.000  0.00  0.00    +0.000 A 
ATOM     19  C   UNL     1       5.678   4.085   0.000  0.00  0.00    +0.000 A 
BRANCH  18  20
ATOM     20  O   UNL     1       7.139   4.065   0.000  0.00  0.00    +0.000 OA
ATOM     21  C   UNL     1       7.142   4.890   0.000  0.00  0.00    +0.000 C 
ENDBRANCH  18  20
ENDBRANCH   5  11
BRANCH   2  22
ATOM     22  O   UNL     1       4.951  -2.159   0.000  0.00  0.00    +0.000 OA
BRANCH  22  31
ATOM     23  O   UNL     1       3.522  -2.159   0.000  0.00  0.00    +0.000 OA
ATOM     24  O   UNL     1       3.522  -4.634   0.000  0.00  0.00    +0.000 OA
ATOM     25  O   UNL     1       2.093  -3.809   0.000  0.00  0.00    +0.000 OA
ATOM     26  O   UNL     1       4.951  -3.809   0.000  0.00  0.00    +0.000 OA
ATOM     27  C   UNL     1       3.522  -3.809   0.000  0.00  0.00    +0.000 C 
ATOM     28  C   UNL     1       2.808  -3.397   0.000  0.00  0.00    +0.000 C 
ATOM     29  C   UNL     1       4.236  -3.397   0.000  0.00  0.00    +0.000 C 
ATOM     30  C   UNL     1       2.808  -2.572   0.000  0.00  0.00    +0.000 C 
ATOM     31  C   UNL     1       4.236  -2.572   0.000  0.00  0.00    +0.000 C 
ATOM     32  C   UNL     1       2.093  -2.159   0.000  0.00  0.00    +0.000 C 
ENDBRANCH  22  31
ENDBRANCH   2  22
TORSDOF 4
