REMARK  Name = 131834139
REMARK  5 active torsions:
REMARK  status: ('A' for Active; 'I' for Inactive)
REMARK    1  A    between atoms: S_1  and  C_20
REMARK    2  A    between atoms: S_2  and  O_8
REMARK    3  A    between atoms: O_7  and  C_26
REMARK    4  A    between atoms: O_8  and  C_28
REMARK    5  A    between atoms: C_15  and  C_19
REMARK                            x       y       z     vdW  Elec       q    Type
REMARK                         _______ _______ _______ _____ _____    ______ ____
ROOT
ATOM      1  O   UNL     1       4.974  -0.481   0.000  0.00  0.00    +0.000 OA
ATOM      2  O   UNL     1       6.434   1.218   0.000  0.00  0.00    +0.000 OA
ATOM      3  O   UNL     1       2.093   1.198   0.000  0.00  0.00    +0.000 OA
ATOM      4  O   UNL     1       2.093  -0.452   0.000  0.00  0.00    +0.000 OA
ATOM      5  C   UNL     1       5.721   0.803   0.000  0.00  0.00    +0.000 C 
ATOM      6  C   UNL     1       5.721  -0.057   0.000  0.00  0.00    +0.000 C 
ATOM      7  C   UNL     1       4.974   1.226   0.000  0.00  0.00    +0.000 C 
ATOM      8  C   UNL     1       4.236   0.785   0.000  0.00  0.00    +0.000 A 
ATOM      9  C   UNL     1       4.236  -0.040   0.000  0.00  0.00    +0.000 A 
ATOM     10  C   UNL     1       3.522   1.198   0.000  0.00  0.00    +0.000 A 
ATOM     11  C   UNL     1       3.522  -0.452   0.000  0.00  0.00    +0.000 A 
ATOM     12  C   UNL     1       2.808   0.785   0.000  0.00  0.00    +0.000 A 
ATOM     13  C   UNL     1       2.808  -0.040   0.000  0.00  0.00    +0.000 A 
ENDROOT
BRANCH   6  14
ATOM     14  C   UNL     1       6.434  -0.472   0.000  0.00  0.00    +0.000 A 
ATOM     15  C   UNL     1       6.431  -1.297   0.000  0.00  0.00    +0.000 A 
ATOM     16  C   UNL     1       7.150  -0.062   0.000  0.00  0.00    +0.000 A 
ATOM     17  C   UNL     1       7.144  -1.712   0.000  0.00  0.00    +0.000 A 
ATOM     18  C   UNL     1       7.863  -0.477   0.000  0.00  0.00    +0.000 A 
ATOM     19  C   UNL     1       7.860  -1.302   0.000  0.00  0.00    +0.000 A 
BRANCH  17  20
ATOM     20  O   UNL     1       7.141  -2.537   0.000  0.00  0.00    +0.000 OA
ATOM     21  C   UNL     1       6.425  -2.947   0.000  0.00  0.00    +0.000 C 
ENDBRANCH  17  20
BRANCH  19  22
ATOM     22  O   UNL     1       8.573  -1.718   0.000  0.00  0.00    +0.000 OA
BRANCH  22  23
ATOM     23  S   UNL     1       9.289  -1.308   0.000  0.00  0.00    +0.000 S 
ATOM     24  O   UNL     1      10.005  -0.898   0.000  0.00  0.00    +0.000 OA
ATOM     25  O   UNL     1       9.699  -2.024   0.000  0.00  0.00    +0.000 OA
ATOM     26  O   UNL     1       8.879  -0.592   0.000  0.00  0.00    +0.000 OA
ENDBRANCH  22  23
ENDBRANCH  19  22
ENDBRANCH   6  14
BRANCH  10  27
ATOM     27  S   UNL     1       3.522   2.023   0.000  0.00  0.00    +0.000 S 
ATOM     28  O   UNL     1       2.808   2.436   0.000  0.00  0.00    +0.000 OA
ATOM     29  O   UNL     1       4.236   2.436   0.000  0.00  0.00    +0.000 OA
ENDBRANCH  10  27
TORSDOF 5
