REMARK  Name = 131833693
REMARK  6 active torsions:
REMARK  status: ('A' for Active; 'I' for Inactive)
REMARK    1  A    between atoms: O_3  and  C_21
REMARK    2  A    between atoms: O_3  and  C_27
REMARK    3  A    between atoms: O_15  and  C_41
REMARK    4  A    between atoms: C_19  and  C_24
REMARK    5  A    between atoms: C_23  and  C_32
REMARK    6  A    between atoms: C_36  and  C_38
REMARK                            x       y       z     vdW  Elec       q    Type
REMARK                         _______ _______ _______ _____ _____    ______ ____
ROOT
ATOM      1  O   UNL     1       4.963   0.734   0.000  0.00  0.00    +0.000 OA
ATOM      2  O   UNL     1       7.857   0.728   0.000  0.00  0.00    +0.000 OA
ATOM      3  O   UNL     1       7.160   1.992   0.000  0.00  0.00    +0.000 OA
ATOM      4  C   UNL     1       7.143  -0.509   0.000  0.00  0.00    +0.000 A 
ATOM      5  C   UNL     1       6.428  -0.922   0.000  0.00  0.00    +0.000 A 
ATOM      6  C   UNL     1       7.143   0.316   0.000  0.00  0.00    +0.000 A 
ATOM      7  C   UNL     1       5.714  -0.509   0.000  0.00  0.00    +0.000 A 
ATOM      8  C   UNL     1       6.428   0.728   0.000  0.00  0.00    +0.000 A 
ATOM      9  C   UNL     1       5.714   0.316   0.000  0.00  0.00    +0.000 A 
ATOM     10  C   UNL     1       6.441   1.587   0.000  0.00  0.00    +0.000 A 
ATOM     11  C   UNL     1       4.956   1.593   0.000  0.00  0.00    +0.000 A 
ATOM     12  C   UNL     1       5.700   2.023   0.000  0.00  0.00    +0.000 A 
ENDROOT
BRANCH   4  17
ATOM     13  O   UNL     1       8.572  -0.509   0.000  0.00  0.00    +0.000 OA
ATOM     14  O   UNL     1       7.143  -2.159   0.000  0.00  0.00    +0.000 OA
ATOM     15  O   UNL     1       8.572  -2.984   0.000  0.00  0.00    +0.000 OA
ATOM     16  O   UNL     1      10.000  -2.159   0.000  0.00  0.00    +0.000 OA
ATOM     17  C   UNL     1       7.857  -0.922   0.000  0.00  0.00    +0.000 C 
ATOM     18  C   UNL     1       7.857  -1.747   0.000  0.00  0.00    +0.000 C 
ATOM     19  C   UNL     1       8.572  -2.159   0.000  0.00  0.00    +0.000 C 
ATOM     20  C   UNL     1       9.286  -0.922   0.000  0.00  0.00    +0.000 C 
ATOM     21  C   UNL     1       9.286  -1.747   0.000  0.00  0.00    +0.000 C 
ATOM     22  C   UNL     1      10.000  -0.509   0.000  0.00  0.00    +0.000 C 
ENDBRANCH   4  17
BRANCH  11  24
ATOM     23  O   UNL     1       2.092   3.232   0.000  0.00  0.00    +0.000 OA
ATOM     24  C   UNL     1       4.240   2.003   0.000  0.00  0.00    +0.000 A 
ATOM     25  C   UNL     1       4.237   2.828   0.000  0.00  0.00    +0.000 A 
ATOM     26  C   UNL     1       3.527   1.587   0.000  0.00  0.00    +0.000 A 
ATOM     27  C   UNL     1       3.521   3.237   0.000  0.00  0.00    +0.000 A 
ATOM     28  C   UNL     1       2.811   1.997   0.000  0.00  0.00    +0.000 A 
ATOM     29  C   UNL     1       2.808   2.822   0.000  0.00  0.00    +0.000 A 
BRANCH  27  30
ATOM     30  O   UNL     1       3.518   4.062   0.000  0.00  0.00    +0.000 OA
ATOM     31  C   UNL     1       4.231   4.478   0.000  0.00  0.00    +0.000 C 
ENDBRANCH  27  30
ENDBRANCH  11  24
BRANCH   5  32
ATOM     32  O   UNL     1       6.428  -1.747   0.000  0.00  0.00    +0.000 OA
BRANCH  32  40
ATOM     33  O   UNL     1       4.999  -1.747   0.000  0.00  0.00    +0.000 OA
ATOM     34  O   UNL     1       4.999  -4.222   0.000  0.00  0.00    +0.000 OA
ATOM     35  O   UNL     1       6.428  -3.397   0.000  0.00  0.00    +0.000 OA
ATOM     36  O   UNL     1       3.570  -3.397   0.000  0.00  0.00    +0.000 OA
ATOM     37  C   UNL     1       4.999  -3.397   0.000  0.00  0.00    +0.000 C 
ATOM     38  C   UNL     1       5.714  -2.984   0.000  0.00  0.00    +0.000 C 
ATOM     39  C   UNL     1       4.285  -2.984   0.000  0.00  0.00    +0.000 C 
ATOM     40  C   UNL     1       5.714  -2.159   0.000  0.00  0.00    +0.000 C 
ATOM     41  C   UNL     1       4.285  -2.159   0.000  0.00  0.00    +0.000 C 
BRANCH  41  44
ATOM     42  O   UNL     1       2.856  -2.159   0.000  0.00  0.00    +0.000 OA
ATOM     43  O   UNL     1       3.570  -0.922   0.000  0.00  0.00    +0.000 OA
ATOM     44  C   UNL     1       3.570  -1.747   0.000  0.00  0.00    +0.000 C 
ENDBRANCH  41  44
ENDBRANCH  32  40
ENDBRANCH   5  32
TORSDOF 6
