REMARK  Name = 44259005
REMARK  10 active torsions:
REMARK  status: ('A' for Active; 'I' for Inactive)
REMARK    1  A    between atoms: O_1  and  C_24
REMARK    2  A    between atoms: O_1  and  C_29
REMARK    3  A    between atoms: O_4  and  C_33
REMARK    4  A    between atoms: O_4  and  C_35
REMARK    5  A    between atoms: O_6  and  C_28
REMARK    6  A    between atoms: O_6  and  C_42
REMARK    7  A    between atoms: O_16  and  C_47
REMARK    8  A    between atoms: O_16  and  C_53
REMARK    9  A    between atoms: C_27  and  C_33
REMARK   10  A    between atoms: C_48  and  C_54
REMARK                            x       y       z     vdW  Elec       q    Type
REMARK                         _______ _______ _______ _____ _____    ______ ____
ROOT
ATOM      1  O   UNL     1       8.523  -0.935   0.000  0.00  0.00    +0.000 OA
ENDROOT
BRANCH   1   5
ATOM      2  O   UNL     1       9.238   1.128   0.000  0.00  0.00    +0.000 OA
ATOM      3  O   UNL     1       7.094  -0.110   0.000  0.00  0.00    +0.000 OA
ATOM      4  O   UNL     1       6.348   1.125   0.000  0.00  0.00    +0.000 OA
ATOM      5  C   UNL     1       8.523  -0.110   0.000  0.00  0.00    +0.000 A 
ATOM      6  C   UNL     1       9.238   0.303   0.000  0.00  0.00    +0.000 A 
ATOM      7  C   UNL     1       7.809   0.303   0.000  0.00  0.00    +0.000 A 
ATOM      8  C   UNL     1       7.809   1.128   0.000  0.00  0.00    +0.000 A 
ATOM      9  C   UNL     1       8.523   1.540   0.000  0.00  0.00    +0.000 A 
ATOM     10  C   UNL     1       7.796   2.835   0.000  0.00  0.00    +0.000 A 
ATOM     11  C   UNL     1       8.537   2.400   0.000  0.00  0.00    +0.000 A 
ATOM     12  C   UNL     1       7.058   1.546   0.000  0.00  0.00    +0.000 A 
ATOM     13  C   UNL     1       7.051   2.405   0.000  0.00  0.00    +0.000 A 
BRANCH   6  15
ATOM     14  O   UNL     1      12.096  -1.347   0.000  0.00  0.00    +0.000 OA
ATOM     15  C   UNL     1       9.952  -0.110   0.000  0.00  0.00    +0.000 A 
ATOM     16  C   UNL     1       9.952  -0.935   0.000  0.00  0.00    +0.000 A 
ATOM     17  C   UNL     1      10.667   0.303   0.000  0.00  0.00    +0.000 A 
ATOM     18  C   UNL     1      10.667  -1.347   0.000  0.00  0.00    +0.000 A 
ATOM     19  C   UNL     1      11.381  -0.110   0.000  0.00  0.00    +0.000 A 
ATOM     20  C   UNL     1      11.381  -0.935   0.000  0.00  0.00    +0.000 A 
ENDBRANCH   6  15
BRANCH  10  21
ATOM     21  O   UNL     1       7.799   3.660   0.000  0.00  0.00    +0.000 OA
BRANCH  21  30
ATOM     22  O   UNL     1       7.089   4.900   0.000  0.00  0.00    +0.000 OA
ATOM     23  O   UNL     1       4.941   3.671   0.000  0.00  0.00    +0.000 OA
ATOM     24  O   UNL     1       4.947   5.321   0.000  0.00  0.00    +0.000 OA
ATOM     25  O   UNL     1       6.367   2.841   0.000  0.00  0.00    +0.000 OA
ATOM     26  C   UNL     1       5.657   4.081   0.000  0.00  0.00    +0.000 C 
ATOM     27  C   UNL     1       5.660   4.906   0.000  0.00  0.00    +0.000 C 
ATOM     28  C   UNL     1       6.370   3.666   0.000  0.00  0.00    +0.000 C 
ATOM     29  C   UNL     1       6.376   5.316   0.000  0.00  0.00    +0.000 C 
ATOM     30  C   UNL     1       7.086   4.075   0.000  0.00  0.00    +0.000 C 
ATOM     31  C   UNL     1       6.380   6.141   0.000  0.00  0.00    +0.000 C 
ENDBRANCH  21  30
ENDBRANCH  10  21
ENDBRANCH   1   5
BRANCH   1  39
ATOM     32  O   UNL     1       7.094  -0.935   0.000  0.00  0.00    +0.000 OA
ATOM     33  O   UNL     1       7.094  -3.410   0.000  0.00  0.00    +0.000 OA
ATOM     34  O   UNL     1       5.665  -2.585   0.000  0.00  0.00    +0.000 OA
ATOM     35  C   UNL     1       7.809  -2.172   0.000  0.00  0.00    +0.000 C 
ATOM     36  C   UNL     1       7.094  -2.585   0.000  0.00  0.00    +0.000 C 
ATOM     37  C   UNL     1       6.380  -2.172   0.000  0.00  0.00    +0.000 C 
ATOM     38  C   UNL     1       6.380  -1.347   0.000  0.00  0.00    +0.000 C 
ATOM     39  C   UNL     1       7.809  -1.347   0.000  0.00  0.00    +0.000 C 
BRANCH  35  40
ATOM     40  O   UNL     1       8.523  -2.585   0.000  0.00  0.00    +0.000 OA
BRANCH  40  45
ATOM     41  O   UNL     1       7.809  -3.822   0.000  0.00  0.00    +0.000 OA
ATOM     42  O   UNL     1       9.952  -3.410   0.000  0.00  0.00    +0.000 OA
ATOM     43  O   UNL     1       9.952  -5.060   0.000  0.00  0.00    +0.000 OA
ATOM     44  O   UNL     1       8.523  -5.885   0.000  0.00  0.00    +0.000 OA
ATOM     45  C   UNL     1       8.523  -3.410   0.000  0.00  0.00    +0.000 C 
ATOM     46  C   UNL     1       9.238  -3.822   0.000  0.00  0.00    +0.000 C 
ATOM     47  C   UNL     1       9.238  -4.647   0.000  0.00  0.00    +0.000 C 
ATOM     48  C   UNL     1       8.523  -5.060   0.000  0.00  0.00    +0.000 C 
ATOM     49  C   UNL     1       7.809  -4.647   0.000  0.00  0.00    +0.000 C 
ATOM     50  C   UNL     1       7.094  -5.060   0.000  0.00  0.00    +0.000 C 
ENDBRANCH  40  45
ENDBRANCH  35  40
BRANCH  38  51
ATOM     51  C   UNL     1       5.665  -0.935   0.000  0.00  0.00    +0.000 C 
BRANCH  51  52
ATOM     52  O   UNL     1       4.951  -1.347   0.000  0.00  0.00    +0.000 OA
BRANCH  52  57
ATOM     53  O   UNL     1       3.522  -1.347   0.000  0.00  0.00    +0.000 OA
ATOM     54  O   UNL     1       4.951   0.303   0.000  0.00  0.00    +0.000 OA
ATOM     55  O   UNL     1       3.522   1.128   0.000  0.00  0.00    +0.000 OA
ATOM     56  O   UNL     1       2.093   0.303   0.000  0.00  0.00    +0.000 OA
ATOM     57  C   UNL     1       4.236  -0.935   0.000  0.00  0.00    +0.000 C 
ATOM     58  C   UNL     1       4.236  -0.110   0.000  0.00  0.00    +0.000 C 
ATOM     59  C   UNL     1       3.522   0.303   0.000  0.00  0.00    +0.000 C 
ATOM     60  C   UNL     1       2.808  -0.110   0.000  0.00  0.00    +0.000 C 
ATOM     61  C   UNL     1       2.808  -0.935   0.000  0.00  0.00    +0.000 C 
ATOM     62  C   UNL     1       2.093  -1.347   0.000  0.00  0.00    +0.000 C 
ENDBRANCH  52  57
ENDBRANCH  51  52
ENDBRANCH  38  51
ENDBRANCH   1  39
TORSDOF 10
