REMARK  Name = 131752149
REMARK  10 active torsions:
REMARK  status: ('A' for Active; 'I' for Inactive)
REMARK    1  A    between atoms: O_3  and  C_30
REMARK    2  A    between atoms: O_3  and  C_41
REMARK    3  A    between atoms: O_5  and  C_33
REMARK    4  A    between atoms: O_5  and  C_43
REMARK    5  A    between atoms: O_6  and  C_37
REMARK    6  A    between atoms: O_6  and  C_42
REMARK    7  A    between atoms: C_27  and  C_39
REMARK    8  A    between atoms: C_32  and  C_40
REMARK    9  A    between atoms: C_38  and  C_47
REMARK   10  A    between atoms: C_50  and  C_51
REMARK                            x       y       z     vdW  Elec       q    Type
REMARK                         _______ _______ _______ _____ _____    ______ ____
ROOT
ATOM      1  O   UNL     1       7.147   1.060   0.000  0.00  0.00    +0.000 OA
ATOM      2  O   UNL     1       8.584  -1.446   0.000  0.00  0.00    +0.000 OA
ATOM      3  O   UNL     1       9.286  -0.185   0.000  0.00  0.00    +0.000 OA
ATOM      4  C   UNL     1       7.124  -1.472   0.000  0.00  0.00    +0.000 A 
ATOM      5  C   UNL     1       6.382  -1.039   0.000  0.00  0.00    +0.000 A 
ATOM      6  C   UNL     1       8.576   1.055   0.000  0.00  0.00    +0.000 A 
ATOM      7  C   UNL     1       7.857  -0.180   0.000  0.00  0.00    +0.000 A 
ATOM      8  C   UNL     1       7.867  -1.039   0.000  0.00  0.00    +0.000 A 
ATOM      9  C   UNL     1       7.144   0.235   0.000  0.00  0.00    +0.000 A 
ATOM     10  C   UNL     1       6.392  -0.180   0.000  0.00  0.00    +0.000 A 
ATOM     11  C   UNL     1       8.573   0.230   0.000  0.00  0.00    +0.000 A 
ATOM     12  C   UNL     1       7.863   1.470   0.000  0.00  0.00    +0.000 A 
ENDROOT
BRANCH  12  14
ATOM     13  O   UNL     1       7.876   4.770   0.000  0.00  0.00    +0.000 OA
ATOM     14  C   UNL     1       7.866   2.295   0.000  0.00  0.00    +0.000 A 
ATOM     15  C   UNL     1       7.153   2.710   0.000  0.00  0.00    +0.000 A 
ATOM     16  C   UNL     1       8.582   2.705   0.000  0.00  0.00    +0.000 A 
ATOM     17  C   UNL     1       7.157   3.535   0.000  0.00  0.00    +0.000 A 
ATOM     18  C   UNL     1       8.585   3.530   0.000  0.00  0.00    +0.000 A 
ATOM     19  C   UNL     1       7.873   3.945   0.000  0.00  0.00    +0.000 A 
ENDBRANCH  12  14
BRANCH   4  20
ATOM     20  O   UNL     1       7.124  -2.297   0.000  0.00  0.00    +0.000 OA
BRANCH  20  29
ATOM     21  O   UNL     1       5.695  -2.297   0.000  0.00  0.00    +0.000 OA
ATOM     22  O   UNL     1       5.695  -4.772   0.000  0.00  0.00    +0.000 OA
ATOM     23  O   UNL     1       4.266  -3.947   0.000  0.00  0.00    +0.000 OA
ATOM     24  O   UNL     1       7.124  -3.947   0.000  0.00  0.00    +0.000 OA
ATOM     25  C   UNL     1       5.695  -3.947   0.000  0.00  0.00    +0.000 C 
ATOM     26  C   UNL     1       4.981  -3.534   0.000  0.00  0.00    +0.000 C 
ATOM     27  C   UNL     1       6.410  -3.534   0.000  0.00  0.00    +0.000 C 
ATOM     28  C   UNL     1       4.981  -2.709   0.000  0.00  0.00    +0.000 C 
ATOM     29  C   UNL     1       6.410  -2.709   0.000  0.00  0.00    +0.000 C 
BRANCH  28  31
ATOM     30  O   UNL     1       3.552  -2.709   0.000  0.00  0.00    +0.000 OA
ATOM     31  C   UNL     1       4.266  -2.297   0.000  0.00  0.00    +0.000 C 
ENDBRANCH  28  31
ENDBRANCH  20  29
ENDBRANCH   4  20
BRANCH   6  32
ATOM     32  O   UNL     1       9.292   1.464   0.000  0.00  0.00    +0.000 OA
BRANCH  32  41
ATOM     33  O   UNL     1      10.002   0.224   0.000  0.00  0.00    +0.000 OA
ATOM     34  O   UNL     1      12.150   1.454   0.000  0.00  0.00    +0.000 OA
ATOM     35  O   UNL     1      12.143  -0.196   0.000  0.00  0.00    +0.000 OA
ATOM     36  O   UNL     1      10.724   2.284   0.000  0.00  0.00    +0.000 OA
ATOM     37  C   UNL     1      11.434   1.044   0.000  0.00  0.00    +0.000 C 
ATOM     38  C   UNL     1      11.431   0.219   0.000  0.00  0.00    +0.000 C 
ATOM     39  C   UNL     1      10.721   1.459   0.000  0.00  0.00    +0.000 C 
ATOM     40  C   UNL     1      10.715  -0.191   0.000  0.00  0.00    +0.000 C 
ATOM     41  C   UNL     1      10.005   1.049   0.000  0.00  0.00    +0.000 C 
BRANCH  40  43
ATOM     42  O   UNL     1       9.995  -1.426   0.000  0.00  0.00    +0.000 OA
ATOM     43  C   UNL     1      10.711  -1.016   0.000  0.00  0.00    +0.000 C 
ENDBRANCH  40  43
ENDBRANCH  32  41
ENDBRANCH   6  32
BRANCH   5  44
ATOM     44  O   UNL     1       5.664  -1.446   0.000  0.00  0.00    +0.000 OA
BRANCH  44  52
ATOM     45  O   UNL     1       4.235  -1.435   0.000  0.00  0.00    +0.000 OA
ATOM     46  O   UNL     1       4.254   1.040   0.000  0.00  0.00    +0.000 OA
ATOM     47  O   UNL     1       5.677   0.204   0.000  0.00  0.00    +0.000 OA
ATOM     48  O   UNL     1       2.819   0.226   0.000  0.00  0.00    +0.000 OA
ATOM     49  C   UNL     1       4.248   0.215   0.000  0.00  0.00    +0.000 C 
ATOM     50  C   UNL     1       4.959  -0.203   0.000  0.00  0.00    +0.000 C 
ATOM     51  C   UNL     1       3.530  -0.192   0.000  0.00  0.00    +0.000 C 
ATOM     52  C   UNL     1       4.953  -1.028   0.000  0.00  0.00    +0.000 C 
ATOM     53  C   UNL     1       3.524  -1.017   0.000  0.00  0.00    +0.000 C 
BRANCH  53  56
ATOM     54  O   UNL     1       2.095  -1.006   0.000  0.00  0.00    +0.000 OA
ATOM     55  O   UNL     1       2.800  -2.249   0.000  0.00  0.00    +0.000 OA
ATOM     56  C   UNL     1       2.806  -1.424   0.000  0.00  0.00    +0.000 C 
ENDBRANCH  53  56
ENDBRANCH  44  52
ENDBRANCH   5  44
TORSDOF 10
