REMARK  Name = 44257684
REMARK  8 active torsions:
REMARK  status: ('A' for Active; 'I' for Inactive)
REMARK    1  A    between atoms: O_2  and  C_14
REMARK    2  A    between atoms: O_2  and  C_26
REMARK    3  A    between atoms: O_12  and  C_41
REMARK    4  A    between atoms: C_16  and  C_19
REMARK    5  A    between atoms: C_18  and  C_20
REMARK    6  A    between atoms: C_26  and  C_28
REMARK    7  A    between atoms: C_30  and  C_31
REMARK    8  A    between atoms: C_32  and  C_33
REMARK                            x       y       z     vdW  Elec       q    Type
REMARK                         _______ _______ _______ _____ _____    ______ ____
ROOT
ATOM      1  O   UNL     1       4.236  -1.685   0.000  0.00  0.00    +0.000 OA
ATOM      2  O   UNL     1       4.236   0.790   0.000  0.00  0.00    +0.000 OA
ATOM      3  O   UNL     1       2.808  -0.035   0.000  0.00  0.00    +0.000 OA
ATOM      4  C   UNL     1       4.951  -0.448   0.000  0.00  0.00    +0.000 C 
ATOM      5  C   UNL     1       4.236  -0.035   0.000  0.00  0.00    +0.000 C 
ATOM      6  C   UNL     1       4.951  -1.273   0.000  0.00  0.00    +0.000 C 
ATOM      7  C   UNL     1       3.522  -0.448   0.000  0.00  0.00    +0.000 C 
ATOM      8  C   UNL     1       3.522  -1.273   0.000  0.00  0.00    +0.000 C 
ENDROOT
BRANCH   6  13
ATOM      9  O   UNL     1       6.380  -0.448   0.000  0.00  0.00    +0.000 OA
ATOM     10  O   UNL     1       4.951  -2.923   0.000  0.00  0.00    +0.000 OA
ATOM     11  O   UNL     1       7.832  -2.951   0.000  0.00  0.00    +0.000 OA
ATOM     12  O   UNL     1       7.822  -0.419   0.000  0.00  0.00    +0.000 OA
ATOM     13  C   UNL     1       5.665  -1.685   0.000  0.00  0.00    +0.000 A 
ATOM     14  C   UNL     1       6.380  -1.273   0.000  0.00  0.00    +0.000 A 
ATOM     15  C   UNL     1       5.665  -2.510   0.000  0.00  0.00    +0.000 A 
ATOM     16  C   UNL     1       7.094  -1.685   0.000  0.00  0.00    +0.000 A 
ATOM     17  C   UNL     1       6.380  -2.923   0.000  0.00  0.00    +0.000 A 
ATOM     18  C   UNL     1       7.094  -2.510   0.000  0.00  0.00    +0.000 A 
ATOM     19  C   UNL     1       7.832  -1.244   0.000  0.00  0.00    +0.000 A 
ATOM     20  C   UNL     1       8.579  -1.668   0.000  0.00  0.00    +0.000 A 
ATOM     21  C   UNL     1       8.579  -2.528   0.000  0.00  0.00    +0.000 A 
BRANCH  21  23
ATOM     22  O   UNL     1      11.431  -4.189   0.000  0.00  0.00    +0.000 OA
ATOM     23  C   UNL     1       9.292  -2.943   0.000  0.00  0.00    +0.000 A 
ATOM     24  C   UNL     1      10.008  -2.533   0.000  0.00  0.00    +0.000 A 
ATOM     25  C   UNL     1       9.289  -3.768   0.000  0.00  0.00    +0.000 A 
ATOM     26  C   UNL     1      10.721  -2.948   0.000  0.00  0.00    +0.000 A 
ATOM     27  C   UNL     1      10.002  -4.183   0.000  0.00  0.00    +0.000 A 
ATOM     28  C   UNL     1      10.718  -3.773   0.000  0.00  0.00    +0.000 A 
ENDBRANCH  21  23
ENDBRANCH   6  13
BRANCH   8  30
ATOM     29  O   UNL     1       2.093  -1.273   0.000  0.00  0.00    +0.000 OA
ATOM     30  C   UNL     1       2.808  -1.685   0.000  0.00  0.00    +0.000 C 
ENDBRANCH   8  30
BRANCH   4  31
ATOM     31  O   UNL     1       5.665  -0.035   0.000  0.00  0.00    +0.000 OA
BRANCH  31  33
ATOM     32  O   UNL     1       4.951   1.202   0.000  0.00  0.00    +0.000 OA
ATOM     33  C   UNL     1       5.665   0.790   0.000  0.00  0.00    +0.000 C 
BRANCH  33  34
ATOM     34  C   UNL     1       6.380   1.202   0.000  0.00  0.00    +0.000 C 
ATOM     35  C   UNL     1       6.380   2.027   0.000  0.00  0.00    +0.000 C 
BRANCH  35  37
ATOM     36  O   UNL     1       9.238   3.677   0.000  0.00  0.00    +0.000 OA
ATOM     37  C   UNL     1       7.094   2.440   0.000  0.00  0.00    +0.000 A 
ATOM     38  C   UNL     1       7.809   2.027   0.000  0.00  0.00    +0.000 A 
ATOM     39  C   UNL     1       7.094   3.265   0.000  0.00  0.00    +0.000 A 
ATOM     40  C   UNL     1       8.523   2.440   0.000  0.00  0.00    +0.000 A 
ATOM     41  C   UNL     1       7.809   3.677   0.000  0.00  0.00    +0.000 A 
ATOM     42  C   UNL     1       8.523   3.265   0.000  0.00  0.00    +0.000 A 
BRANCH  40  43
ATOM     43  O   UNL     1       9.238   2.027   0.000  0.00  0.00    +0.000 OA
ATOM     44  C   UNL     1       9.952   2.440   0.000  0.00  0.00    +0.000 C 
ENDBRANCH  40  43
ENDBRANCH  35  37
ENDBRANCH  33  34
ENDBRANCH  31  33
ENDBRANCH   4  31
TORSDOF 8
