REMARK  Name = 131836682
REMARK  6 active torsions:
REMARK  status: ('A' for Active; 'I' for Inactive)
REMARK    1  A    between atoms: O_2  and  C_17
REMARK    2  A    between atoms: O_2  and  C_19
REMARK    3  A    between atoms: C_18  and  C_22
REMARK    4  A    between atoms: C_21  and  C_30
REMARK    5  A    between atoms: C_23  and  C_29
REMARK    6  A    between atoms: C_29  and  C_33
REMARK                            x       y       z     vdW  Elec       q    Type
REMARK                         _______ _______ _______ _____ _____    ______ ____
ROOT
ATOM      1  O   UNL     1       7.117   1.460   0.000  0.00  0.00    +0.000 OA
ATOM      2  O   UNL     1       7.108  -1.072   0.000  0.00  0.00    +0.000 OA
ATOM      3  O   UNL     1       4.669   1.794   0.000  0.00  0.00    +0.000 OA
ATOM      4  C   UNL     1       5.665  -0.218   0.000  0.00  0.00    +0.000 A 
ATOM      5  C   UNL     1       6.380   0.194   0.000  0.00  0.00    +0.000 A 
ATOM      6  C   UNL     1       7.865   1.036   0.000  0.00  0.00    +0.000 C 
ATOM      7  C   UNL     1       4.951   0.194   0.000  0.00  0.00    +0.000 A 
ATOM      8  C   UNL     1       7.865   0.177   0.000  0.00  0.00    +0.000 C 
ATOM      9  C   UNL     1       6.380   1.019   0.000  0.00  0.00    +0.000 A 
ATOM     10  C   UNL     1       7.117  -0.247   0.000  0.00  0.00    +0.000 C 
ATOM     11  C   UNL     1       4.951   1.019   0.000  0.00  0.00    +0.000 A 
ATOM     12  C   UNL     1       5.665   1.431   0.000  0.00  0.00    +0.000 A 
ENDROOT
BRANCH   6  16
ATOM     13  O   UNL     1       9.297   0.217   0.000  0.00  0.00    +0.000 OA
ATOM     14  O   UNL     1       9.284   3.517   0.000  0.00  0.00    +0.000 OA
ATOM     15  O   UNL     1      10.716   2.697   0.000  0.00  0.00    +0.000 OA
ATOM     16  C   UNL     1       8.578   1.452   0.000  0.00  0.00    +0.000 A 
ATOM     17  C   UNL     1       9.294   1.042   0.000  0.00  0.00    +0.000 A 
ATOM     18  C   UNL     1       8.575   2.276   0.000  0.00  0.00    +0.000 A 
ATOM     19  C   UNL     1       9.287   2.692   0.000  0.00  0.00    +0.000 A 
ATOM     20  C   UNL     1      10.007   1.457   0.000  0.00  0.00    +0.000 A 
ATOM     21  C   UNL     1      10.004   2.282   0.000  0.00  0.00    +0.000 A 
ENDBRANCH   6  16
BRANCH   4  22
ATOM     22  O   UNL     1       5.665  -1.044   0.000  0.00  0.00    +0.000 OA
BRANCH  22  30
ATOM     23  O   UNL     1       4.236  -1.044   0.000  0.00  0.00    +0.000 OA
ATOM     24  O   UNL     1       4.236  -3.518   0.000  0.00  0.00    +0.000 OA
ATOM     25  O   UNL     1       5.665  -2.693   0.000  0.00  0.00    +0.000 OA
ATOM     26  O   UNL     1       2.808  -2.693   0.000  0.00  0.00    +0.000 OA
ATOM     27  C   UNL     1       4.236  -2.693   0.000  0.00  0.00    +0.000 C 
ATOM     28  C   UNL     1       4.951  -2.281   0.000  0.00  0.00    +0.000 C 
ATOM     29  C   UNL     1       3.522  -2.281   0.000  0.00  0.00    +0.000 C 
ATOM     30  C   UNL     1       4.951  -1.456   0.000  0.00  0.00    +0.000 C 
ATOM     31  C   UNL     1       3.522  -1.456   0.000  0.00  0.00    +0.000 C 
BRANCH  31  34
ATOM     32  O   UNL     1       2.093  -1.456   0.000  0.00  0.00    +0.000 OA
ATOM     33  O   UNL     1       2.808  -0.218   0.000  0.00  0.00    +0.000 OA
ATOM     34  C   UNL     1       2.808  -1.044   0.000  0.00  0.00    +0.000 C 
ENDBRANCH  31  34
ENDBRANCH  22  30
ENDBRANCH   4  22
BRANCH   7  35
ATOM     35  C   UNL     1       4.236  -0.218   0.000  0.00  0.00    +0.000 C 
BRANCH  35  36
ATOM     36  C   UNL     1       3.522   0.194   0.000  0.00  0.00    +0.000 C 
ATOM     37  C   UNL     1       2.992   0.826   0.000  0.00  0.00    +0.000 C 
ATOM     38  C   UNL     1       2.179   0.683   0.000  0.00  0.00    +0.000 C 
ATOM     39  C   UNL     1       3.274   1.601   0.000  0.00  0.00    +0.000 C 
ENDBRANCH  35  36
ENDBRANCH   7  35
TORSDOF 6
