REMARK  Name = 44259530
REMARK  7 active torsions:
REMARK  status: ('A' for Active; 'I' for Inactive)
REMARK    1  A    between atoms: O_2  and  C_22
REMARK    2  A    between atoms: O_2  and  C_26
REMARK    3  A    between atoms: O_6  and  C_25
REMARK    4  A    between atoms: O_6  and  C_29
REMARK    5  A    between atoms: O_13  and  C_35
REMARK    6  A    between atoms: C_17  and  C_26
REMARK    7  A    between atoms: C_30  and  C_34
REMARK                            x       y       z     vdW  Elec       q    Type
REMARK                         _______ _______ _______ _____ _____    ______ ____
ROOT
ATOM      1  O   UNL     1       6.435   1.031   0.000  0.00  0.00    +0.000 OA
ENDROOT
BRANCH   1   5
ATOM      2  O   UNL     1       5.006   2.681   0.000  0.00  0.00    +0.000 OA
ATOM      3  O   UNL     1       5.006   0.206   0.000  0.00  0.00    +0.000 OA
ATOM      4  O   UNL     1       2.094   2.701   0.000  0.00  0.00    +0.000 OA
ATOM      5  C   UNL     1       5.721   1.444   0.000  0.00  0.00    +0.000 A 
ATOM      6  C   UNL     1       5.721   2.269   0.000  0.00  0.00    +0.000 A 
ATOM      7  C   UNL     1       5.006   1.031   0.000  0.00  0.00    +0.000 A 
ATOM      8  C   UNL     1       4.292   1.444   0.000  0.00  0.00    +0.000 A 
ATOM      9  C   UNL     1       4.292   2.269   0.000  0.00  0.00    +0.000 A 
ATOM     10  C   UNL     1       3.554   1.003   0.000  0.00  0.00    +0.000 A 
ATOM     11  C   UNL     1       3.554   2.710   0.000  0.00  0.00    +0.000 A 
ATOM     12  C   UNL     1       2.807   1.427   0.000  0.00  0.00    +0.000 A 
ATOM     13  C   UNL     1       2.807   2.286   0.000  0.00  0.00    +0.000 A 
BRANCH   6  16
ATOM     14  O   UNL     1       7.150   4.744   0.000  0.00  0.00    +0.000 OA
ATOM     15  O   UNL     1       8.579   3.919   0.000  0.00  0.00    +0.000 OA
ATOM     16  C   UNL     1       6.435   2.681   0.000  0.00  0.00    +0.000 A 
ATOM     17  C   UNL     1       6.435   3.506   0.000  0.00  0.00    +0.000 A 
ATOM     18  C   UNL     1       7.150   2.269   0.000  0.00  0.00    +0.000 A 
ATOM     19  C   UNL     1       7.150   3.919   0.000  0.00  0.00    +0.000 A 
ATOM     20  C   UNL     1       7.864   2.681   0.000  0.00  0.00    +0.000 A 
ATOM     21  C   UNL     1       7.864   3.506   0.000  0.00  0.00    +0.000 A 
ENDBRANCH   6  16
BRANCH  10  22
ATOM     22  O   UNL     1       3.564   0.178   0.000  0.00  0.00    +0.000 OA
ATOM     23  C   UNL     1       2.854  -0.243   0.000  0.00  0.00    +0.000 C 
ENDBRANCH  10  22
ENDBRANCH   1   5
BRANCH   1  32
ATOM     24  O   UNL     1       5.721  -0.206   0.000  0.00  0.00    +0.000 OA
ATOM     25  O   UNL     1       6.435  -2.269   0.000  0.00  0.00    +0.000 OA
ATOM     26  O   UNL     1       7.864  -1.444   0.000  0.00  0.00    +0.000 OA
ATOM     27  O   UNL     1       7.864   0.206   0.000  0.00  0.00    +0.000 OA
ATOM     28  C   UNL     1       5.721  -1.031   0.000  0.00  0.00    +0.000 C 
ATOM     29  C   UNL     1       6.435  -1.444   0.000  0.00  0.00    +0.000 C 
ATOM     30  C   UNL     1       7.150  -1.031   0.000  0.00  0.00    +0.000 C 
ATOM     31  C   UNL     1       7.150  -0.206   0.000  0.00  0.00    +0.000 C 
ATOM     32  C   UNL     1       6.435   0.206   0.000  0.00  0.00    +0.000 C 
BRANCH  28  33
ATOM     33  C   UNL     1       5.006  -1.444   0.000  0.00  0.00    +0.000 C 
BRANCH  33  34
ATOM     34  O   UNL     1       5.006  -2.269   0.000  0.00  0.00    +0.000 OA
BRANCH  34  40
ATOM     35  O   UNL     1       3.577  -2.269   0.000  0.00  0.00    +0.000 OA
ATOM     36  O   UNL     1       5.006  -3.919   0.000  0.00  0.00    +0.000 OA
ATOM     37  O   UNL     1       3.577  -4.744   0.000  0.00  0.00    +0.000 OA
ATOM     38  O   UNL     1       2.148  -3.919   0.000  0.00  0.00    +0.000 OA
ATOM     39  C   UNL     1       4.292  -3.506   0.000  0.00  0.00    +0.000 C 
ATOM     40  C   UNL     1       4.292  -2.681   0.000  0.00  0.00    +0.000 C 
ATOM     41  C   UNL     1       3.577  -3.919   0.000  0.00  0.00    +0.000 C 
ATOM     42  C   UNL     1       2.863  -3.506   0.000  0.00  0.00    +0.000 C 
ATOM     43  C   UNL     1       2.863  -2.681   0.000  0.00  0.00    +0.000 C 
ATOM     44  C   UNL     1       2.148  -2.269   0.000  0.00  0.00    +0.000 C 
ENDBRANCH  34  40
ENDBRANCH  33  34
ENDBRANCH  28  33
ENDBRANCH   1  32
TORSDOF 7
