REMARK  Name = 131831432
REMARK  8 active torsions:
REMARK  status: ('A' for Active; 'I' for Inactive)
REMARK    1  A    between atoms: O_2  and  C_24
REMARK    2  A    between atoms: O_2  and  C_33
REMARK    3  A    between atoms: O_10  and  C_43
REMARK    4  A    between atoms: O_10  and  C_47
REMARK    5  A    between atoms: C_25  and  C_38
REMARK    6  A    between atoms: C_27  and  C_42
REMARK    7  A    between atoms: C_31  and  C_40
REMARK    8  A    between atoms: C_44  and  C_52
REMARK                            x       y       z     vdW  Elec       q    Type
REMARK                         _______ _______ _______ _____ _____    ______ ____
ROOT
ATOM      1  O   UNL     1       7.111  -0.410   0.000  0.00  0.00    +0.000 OA
ATOM      2  O   UNL     1      10.028  -0.388   0.000  0.00  0.00    +0.000 OA
ATOM      3  O   UNL     1       7.852   1.704   0.000  0.00  0.00    +0.000 OA
ATOM      4  O   UNL     1      11.489  -0.396   0.000  0.00  0.00    +0.000 OA
ATOM      5  C   UNL     1       9.291  -1.654   0.000  0.00  0.00    +0.000 A 
ATOM      6  C   UNL     1      10.028  -2.095   0.000  0.00  0.00    +0.000 C 
ATOM      7  C   UNL     1       8.576  -0.416   0.000  0.00  0.00    +0.000 A 
ATOM      8  C   UNL     1       8.589   0.443   0.000  0.00  0.00    +0.000 C 
ATOM      9  C   UNL     1       7.848   0.878   0.000  0.00  0.00    +0.000 C 
ATOM     10  C   UNL     1       7.104   0.449   0.000  0.00  0.00    +0.000 C 
ATOM     11  C   UNL     1       9.291  -0.829   0.000  0.00  0.00    +0.000 A 
ATOM     12  C   UNL     1       8.576  -2.066   0.000  0.00  0.00    +0.000 A 
ATOM     13  C   UNL     1       7.862  -0.829   0.000  0.00  0.00    +0.000 A 
ATOM     14  C   UNL     1      10.776  -1.671   0.000  0.00  0.00    +0.000 C 
ATOM     15  C   UNL     1       7.862  -1.654   0.000  0.00  0.00    +0.000 A 
ATOM     16  C   UNL     1      10.776  -0.811   0.000  0.00  0.00    +0.000 C 
ENDROOT
BRANCH   6  19
ATOM     17  O   UNL     1      11.428  -4.586   0.000  0.00  0.00    +0.000 OA
ATOM     18  O   UNL     1       9.990  -5.395   0.000  0.00  0.00    +0.000 OA
ATOM     19  C   UNL     1      10.019  -2.920   0.000  0.00  0.00    +0.000 A 
ATOM     20  C   UNL     1      10.728  -3.340   0.000  0.00  0.00    +0.000 A 
ATOM     21  C   UNL     1       9.299  -3.324   0.000  0.00  0.00    +0.000 A 
ATOM     22  C   UNL     1      10.719  -4.165   0.000  0.00  0.00    +0.000 A 
ATOM     23  C   UNL     1       9.290  -4.149   0.000  0.00  0.00    +0.000 A 
ATOM     24  C   UNL     1       9.999  -4.570   0.000  0.00  0.00    +0.000 A 
ENDBRANCH   6  19
BRANCH  10  26
ATOM     25  O   UNL     1       4.240   2.088   0.000  0.00  0.00    +0.000 OA
ATOM     26  C   UNL     1       6.388   0.859   0.000  0.00  0.00    +0.000 A 
ATOM     27  C   UNL     1       6.385   1.683   0.000  0.00  0.00    +0.000 A 
ATOM     28  C   UNL     1       5.669   2.093   0.000  0.00  0.00    +0.000 A 
ATOM     29  C   UNL     1       5.675   0.443   0.000  0.00  0.00    +0.000 A 
ATOM     30  C   UNL     1       4.956   1.678   0.000  0.00  0.00    +0.000 A 
ATOM     31  C   UNL     1       4.959   0.853   0.000  0.00  0.00    +0.000 A 
BRANCH  28  32
ATOM     32  O   UNL     1       5.666   2.918   0.000  0.00  0.00    +0.000 OA
BRANCH  32  40
ATOM     33  O   UNL     1       4.237   2.913   0.000  0.00  0.00    +0.000 OA
ATOM     34  O   UNL     1       4.227   5.388   0.000  0.00  0.00    +0.000 OA
ATOM     35  O   UNL     1       5.660   4.568   0.000  0.00  0.00    +0.000 OA
ATOM     36  O   UNL     1       2.802   4.557   0.000  0.00  0.00    +0.000 OA
ATOM     37  C   UNL     1       4.231   4.563   0.000  0.00  0.00    +0.000 C 
ATOM     38  C   UNL     1       4.947   4.153   0.000  0.00  0.00    +0.000 C 
ATOM     39  C   UNL     1       3.518   4.147   0.000  0.00  0.00    +0.000 C 
ATOM     40  C   UNL     1       4.950   3.328   0.000  0.00  0.00    +0.000 C 
ATOM     41  C   UNL     1       3.521   3.322   0.000  0.00  0.00    +0.000 C 
BRANCH  41  44
ATOM     42  O   UNL     1       2.092   3.317   0.000  0.00  0.00    +0.000 OA
ATOM     43  O   UNL     1       2.811   2.082   0.000  0.00  0.00    +0.000 OA
ATOM     44  C   UNL     1       2.808   2.907   0.000  0.00  0.00    +0.000 C 
ENDBRANCH  41  44
ENDBRANCH  32  40
ENDBRANCH  28  32
ENDBRANCH  10  26
BRANCH  12  45
ATOM     45  O   UNL     1       8.576  -2.891   0.000  0.00  0.00    +0.000 OA
BRANCH  45  53
ATOM     46  O   UNL     1       7.147  -2.891   0.000  0.00  0.00    +0.000 OA
ATOM     47  O   UNL     1       7.147  -5.366   0.000  0.00  0.00    +0.000 OA
ATOM     48  O   UNL     1       8.576  -4.541   0.000  0.00  0.00    +0.000 OA
ATOM     49  O   UNL     1       5.718  -4.541   0.000  0.00  0.00    +0.000 OA
ATOM     50  C   UNL     1       7.147  -4.541   0.000  0.00  0.00    +0.000 C 
ATOM     51  C   UNL     1       7.862  -4.129   0.000  0.00  0.00    +0.000 C 
ATOM     52  C   UNL     1       6.433  -4.129   0.000  0.00  0.00    +0.000 C 
ATOM     53  C   UNL     1       7.862  -3.304   0.000  0.00  0.00    +0.000 C 
ATOM     54  C   UNL     1       6.433  -3.304   0.000  0.00  0.00    +0.000 C 
BRANCH  54  56
ATOM     55  O   UNL     1       5.004  -3.304   0.000  0.00  0.00    +0.000 OA
ATOM     56  C   UNL     1       5.718  -2.891   0.000  0.00  0.00    +0.000 C 
ENDBRANCH  54  56
ENDBRANCH  45  53
ENDBRANCH  12  45
TORSDOF 8
