REMARK  Name = 12305632
REMARK  7 active torsions:
REMARK  status: ('A' for Active; 'I' for Inactive)
REMARK    1  A    between atoms: O_3  and  C_18
REMARK    2  A    between atoms: O_3  and  C_20
REMARK    3  A    between atoms: O_6  and  C_19
REMARK    4  A    between atoms: O_6  and  C_23
REMARK    5  A    between atoms: C_16  and  C_19
REMARK    6  A    between atoms: C_23  and  C_27
REMARK    7  A    between atoms: C_29  and  C_31
REMARK                            x       y       z     vdW  Elec       q    Type
REMARK                         _______ _______ _______ _____ _____    ______ ____
ROOT
ATOM      1  O   UNL     1       9.238  -1.386   0.000  0.00  0.00    +0.000 OA
ENDROOT
BRANCH   1   5
ATOM      2  O   UNL     1      10.686   1.141   0.000  0.00  0.00    +0.000 OA
ATOM      3  O   UNL     1       7.797   1.155   0.000  0.00  0.00    +0.000 OA
ATOM      4  O   UNL     1       8.548   2.387   0.000  0.00  0.00    +0.000 OA
ATOM      5  C   UNL     1       9.238  -0.561   0.000  0.00  0.00    +0.000 A 
ATOM      6  C   UNL     1       9.980  -0.128   0.000  0.00  0.00    +0.000 A 
ATOM      7  C   UNL     1       8.495  -0.128   0.000  0.00  0.00    +0.000 A 
ATOM      8  C   UNL     1       9.970   0.731   0.000  0.00  0.00    +0.000 A 
ATOM      9  C   UNL     1       9.257   1.146   0.000  0.00  0.00    +0.000 A 
ATOM     10  C   UNL     1       8.505   0.731   0.000  0.00  0.00    +0.000 A 
ATOM     11  C   UNL     1       9.261   1.971   0.000  0.00  0.00    +0.000 A 
ATOM     12  C   UNL     1      10.690   1.966   0.000  0.00  0.00    +0.000 A 
ATOM     13  C   UNL     1       9.977   2.381   0.000  0.00  0.00    +0.000 A 
BRANCH  12  16
ATOM     14  O   UNL     1      13.547   1.955   0.000  0.00  0.00    +0.000 OA
ATOM     15  O   UNL     1      13.554   3.605   0.000  0.00  0.00    +0.000 OA
ATOM     16  C   UNL     1      11.406   2.376   0.000  0.00  0.00    +0.000 A 
ATOM     17  C   UNL     1      12.118   1.960   0.000  0.00  0.00    +0.000 A 
ATOM     18  C   UNL     1      11.409   3.201   0.000  0.00  0.00    +0.000 A 
ATOM     19  C   UNL     1      12.835   2.370   0.000  0.00  0.00    +0.000 A 
ATOM     20  C   UNL     1      12.125   3.610   0.000  0.00  0.00    +0.000 A 
ATOM     21  C   UNL     1      12.838   3.195   0.000  0.00  0.00    +0.000 A 
ENDBRANCH  12  16
ENDBRANCH   1   5
BRANCH   1  30
ATOM     22  O   UNL     1       7.809  -1.386   0.000  0.00  0.00    +0.000 OA
ATOM     23  O   UNL     1       6.380  -3.036   0.000  0.00  0.00    +0.000 OA
ATOM     24  O   UNL     1       7.809  -3.861   0.000  0.00  0.00    +0.000 OA
ATOM     25  O   UNL     1       9.238  -3.036   0.000  0.00  0.00    +0.000 OA
ATOM     26  C   UNL     1       7.094  -2.623   0.000  0.00  0.00    +0.000 C 
ATOM     27  C   UNL     1       7.809  -3.036   0.000  0.00  0.00    +0.000 C 
ATOM     28  C   UNL     1       7.094  -1.798   0.000  0.00  0.00    +0.000 C 
ATOM     29  C   UNL     1       8.523  -2.623   0.000  0.00  0.00    +0.000 C 
ATOM     30  C   UNL     1       8.523  -1.798   0.000  0.00  0.00    +0.000 C 
BRANCH  28  31
ATOM     31  C   UNL     1       6.380  -1.386   0.000  0.00  0.00    +0.000 C 
BRANCH  31  32
ATOM     32  O   UNL     1       5.665  -1.798   0.000  0.00  0.00    +0.000 OA
BRANCH  32  34
ATOM     33  O   UNL     1       4.951  -0.561   0.000  0.00  0.00    +0.000 OA
ATOM     34  C   UNL     1       4.951  -1.386   0.000  0.00  0.00    +0.000 C 
BRANCH  34  36
ATOM     35  O   UNL     1       2.093  -3.036   0.000  0.00  0.00    +0.000 OA
ATOM     36  C   UNL     1       4.236  -1.798   0.000  0.00  0.00    +0.000 A 
ATOM     37  C   UNL     1       4.236  -2.623   0.000  0.00  0.00    +0.000 A 
ATOM     38  C   UNL     1       3.522  -1.386   0.000  0.00  0.00    +0.000 A 
ATOM     39  C   UNL     1       3.522  -3.036   0.000  0.00  0.00    +0.000 A 
ATOM     40  C   UNL     1       2.808  -1.798   0.000  0.00  0.00    +0.000 A 
ATOM     41  C   UNL     1       2.808  -2.623   0.000  0.00  0.00    +0.000 A 
ENDBRANCH  34  36
ENDBRANCH  32  34
ENDBRANCH  31  32
ENDBRANCH  28  31
ENDBRANCH   1  30
TORSDOF 7
