REMARK  Name = 6438582
REMARK  12 active torsions:
REMARK  status: ('A' for Active; 'I' for Inactive)
REMARK    1  A    between atoms: O_2  and  C_16
REMARK    2  A    between atoms: O_2  and  C_23
REMARK    3  A    between atoms: O_3  and  C_18
REMARK    4  A    between atoms: O_3  and  C_24
REMARK    5  A    between atoms: O_5  and  C_20
REMARK    6  A    between atoms: O_5  and  C_22
REMARK    7  A    between atoms: C_19  and  C_21
REMARK    8  A    between atoms: C_23  and  C_28
REMARK    9  A    between atoms: C_24  and  C_29
REMARK   10  A    between atoms: C_25  and  C_31
REMARK   11  A    between atoms: C_33  and  C_40
REMARK   12  A    between atoms: C_35  and  C_43
REMARK                            x       y       z     vdW  Elec       q    Type
REMARK                         _______ _______ _______ _____ _____    ______ ____
ROOT
ATOM      1  O   UNL     1       8.523   0.511   0.000  0.00  0.00    +0.000 OA
ATOM      2  O   UNL     1       8.523  -1.964   0.000  0.00  0.00    +0.000 OA
ATOM      3  C   UNL     1       7.809  -0.727   0.000  0.00  0.00    +0.000 C 
ATOM      4  C   UNL     1       8.523  -1.139   0.000  0.00  0.00    +0.000 C 
ATOM      5  C   UNL     1       9.238  -0.727   0.000  0.00  0.00    +0.000 C 
ATOM      6  C   UNL     1       7.809   0.098   0.000  0.00  0.00    +0.000 C 
ATOM      7  C   UNL     1       9.238   0.098   0.000  0.00  0.00    +0.000 C 
ENDROOT
BRANCH   6   9
ATOM      8  O   UNL     1       7.094   1.336   0.000  0.00  0.00    +0.000 OA
ATOM      9  C   UNL     1       7.094   0.511   0.000  0.00  0.00    +0.000 C 
ENDBRANCH   6   9
BRANCH   3  10
ATOM     10  O   UNL     1       7.094  -1.139   0.000  0.00  0.00    +0.000 OA
BRANCH  10  12
ATOM     11  O   UNL     1       6.380   0.098   0.000  0.00  0.00    +0.000 OA
ATOM     12  C   UNL     1       6.380  -0.727   0.000  0.00  0.00    +0.000 C 
BRANCH  12  13
ATOM     13  C   UNL     1       5.665  -1.139   0.000  0.00  0.00    +0.000 C 
ATOM     14  C   UNL     1       4.951  -0.727   0.000  0.00  0.00    +0.000 C 
BRANCH  14  16
ATOM     15  O   UNL     1       2.093  -2.377   0.000  0.00  0.00    +0.000 OA
ATOM     16  C   UNL     1       4.237  -1.139   0.000  0.00  0.00    +0.000 A 
ATOM     17  C   UNL     1       4.237  -1.964   0.000  0.00  0.00    +0.000 A 
ATOM     18  C   UNL     1       3.522  -0.727   0.000  0.00  0.00    +0.000 A 
ATOM     19  C   UNL     1       3.522  -2.377   0.000  0.00  0.00    +0.000 A 
ATOM     20  C   UNL     1       2.808  -1.139   0.000  0.00  0.00    +0.000 A 
ATOM     21  C   UNL     1       2.808  -1.964   0.000  0.00  0.00    +0.000 A 
ENDBRANCH  14  16
ENDBRANCH  12  13
ENDBRANCH  10  12
ENDBRANCH   3  10
BRANCH   5  22
ATOM     22  O   UNL     1       9.952  -1.139   0.000  0.00  0.00    +0.000 OA
BRANCH  22  24
ATOM     23  O   UNL     1       9.238  -2.377   0.000  0.00  0.00    +0.000 OA
ATOM     24  C   UNL     1       9.952  -1.964   0.000  0.00  0.00    +0.000 C 
BRANCH  24  25
ATOM     25  C   UNL     1      10.667  -2.377   0.000  0.00  0.00    +0.000 C 
ATOM     26  C   UNL     1      10.667  -3.202   0.000  0.00  0.00    +0.000 C 
BRANCH  26  28
ATOM     27  O   UNL     1      13.525  -4.852   0.000  0.00  0.00    +0.000 OA
ATOM     28  C   UNL     1      11.381  -3.614   0.000  0.00  0.00    +0.000 A 
ATOM     29  C   UNL     1      12.096  -3.202   0.000  0.00  0.00    +0.000 A 
ATOM     30  C   UNL     1      11.381  -4.439   0.000  0.00  0.00    +0.000 A 
ATOM     31  C   UNL     1      12.810  -3.614   0.000  0.00  0.00    +0.000 A 
ATOM     32  C   UNL     1      12.096  -4.852   0.000  0.00  0.00    +0.000 A 
ATOM     33  C   UNL     1      12.810  -4.439   0.000  0.00  0.00    +0.000 A 
ENDBRANCH  26  28
ENDBRANCH  24  25
ENDBRANCH  22  24
ENDBRANCH   5  22
BRANCH   7  34
ATOM     34  O   UNL     1       9.952   0.511   0.000  0.00  0.00    +0.000 OA
BRANCH  34  39
ATOM     35  O   UNL     1      10.667   2.574   0.000  0.00  0.00    +0.000 OA
ATOM     36  O   UNL     1       8.523   1.336   0.000  0.00  0.00    +0.000 OA
ATOM     37  O   UNL     1       7.777   2.571   0.000  0.00  0.00    +0.000 OA
ATOM     38  O   UNL     1       9.228   5.106   0.000  0.00  0.00    +0.000 OA
ATOM     39  C   UNL     1       9.952   1.336   0.000  0.00  0.00    +0.000 A 
ATOM     40  C   UNL     1      10.667   1.748   0.000  0.00  0.00    +0.000 A 
ATOM     41  C   UNL     1       9.238   1.748   0.000  0.00  0.00    +0.000 A 
ATOM     42  C   UNL     1       9.238   2.574   0.000  0.00  0.00    +0.000 A 
ATOM     43  C   UNL     1       9.952   2.986   0.000  0.00  0.00    +0.000 A 
ATOM     44  C   UNL     1       8.487   2.992   0.000  0.00  0.00    +0.000 A 
ATOM     45  C   UNL     1       9.966   3.845   0.000  0.00  0.00    +0.000 A 
ATOM     46  C   UNL     1       8.480   3.851   0.000  0.00  0.00    +0.000 A 
ATOM     47  C   UNL     1       9.225   4.281   0.000  0.00  0.00    +0.000 A 
BRANCH  40  49
ATOM     48  O   UNL     1      13.525   0.098   0.000  0.00  0.00    +0.000 OA
ATOM     49  C   UNL     1      11.381   1.336   0.000  0.00  0.00    +0.000 A 
ATOM     50  C   UNL     1      11.381   0.511   0.000  0.00  0.00    +0.000 A 
ATOM     51  C   UNL     1      12.096   1.748   0.000  0.00  0.00    +0.000 A 
ATOM     52  C   UNL     1      12.096   0.098   0.000  0.00  0.00    +0.000 A 
ATOM     53  C   UNL     1      12.810   1.336   0.000  0.00  0.00    +0.000 A 
ATOM     54  C   UNL     1      12.810   0.511   0.000  0.00  0.00    +0.000 A 
ENDBRANCH  40  49
ENDBRANCH  34  39
ENDBRANCH   7  34
TORSDOF 12
