REMARK  Name = 44257950
REMARK  10 active torsions:
REMARK  status: ('A' for Active; 'I' for Inactive)
REMARK    1  A    between atoms: O_2  and  C_19
REMARK    2  A    between atoms: O_2  and  C_24
REMARK    3  A    between atoms: O_7  and  C_27
REMARK    4  A    between atoms: O_7  and  C_39
REMARK    5  A    between atoms: O_17  and  C_51
REMARK    6  A    between atoms: C_21  and  C_25
REMARK    7  A    between atoms: C_23  and  C_27
REMARK    8  A    between atoms: C_37  and  C_40
REMARK    9  A    between atoms: C_39  and  C_41
REMARK   10  A    between atoms: C_44  and  C_48
REMARK                            x       y       z     vdW  Elec       q    Type
REMARK                         _______ _______ _______ _____ _____    ______ ____
ROOT
ATOM      1  O   UNL     1       7.094   1.650   0.000  0.00  0.00    +0.000 OA
ATOM      2  O   UNL     1       4.951   0.412   0.000  0.00  0.00    +0.000 OA
ATOM      3  O   UNL     1       6.380  -0.412   0.000  0.00  0.00    +0.000 OA
ATOM      4  C   UNL     1       5.665   1.650   0.000  0.00  0.00    +0.000 C 
ATOM      5  C   UNL     1       5.665   0.825   0.000  0.00  0.00    +0.000 C 
ATOM      6  C   UNL     1       6.380   2.062   0.000  0.00  0.00    +0.000 C 
ATOM      7  C   UNL     1       6.380   0.412   0.000  0.00  0.00    +0.000 C 
ATOM      8  C   UNL     1       7.094   0.825   0.000  0.00  0.00    +0.000 C 
ENDROOT
BRANCH   6  13
ATOM      9  O   UNL     1       7.832   2.859   0.000  0.00  0.00    +0.000 OA
ATOM     10  O   UNL     1       4.951   2.888   0.000  0.00  0.00    +0.000 OA
ATOM     11  O   UNL     1       6.380   5.362   0.000  0.00  0.00    +0.000 OA
ATOM     12  O   UNL     1       7.822   5.391   0.000  0.00  0.00    +0.000 OA
ATOM     13  C   UNL     1       6.380   2.888   0.000  0.00  0.00    +0.000 A 
ATOM     14  C   UNL     1       7.094   3.300   0.000  0.00  0.00    +0.000 A 
ATOM     15  C   UNL     1       5.665   3.300   0.000  0.00  0.00    +0.000 A 
ATOM     16  C   UNL     1       7.094   4.125   0.000  0.00  0.00    +0.000 A 
ATOM     17  C   UNL     1       5.665   4.125   0.000  0.00  0.00    +0.000 A 
ATOM     18  C   UNL     1       6.380   4.537   0.000  0.00  0.00    +0.000 A 
ATOM     19  C   UNL     1       7.832   4.566   0.000  0.00  0.00    +0.000 A 
ATOM     20  C   UNL     1       8.579   3.283   0.000  0.00  0.00    +0.000 A 
ATOM     21  C   UNL     1       8.579   4.142   0.000  0.00  0.00    +0.000 A 
BRANCH  20  24
ATOM     22  O   UNL     1       9.999   0.802   0.000  0.00  0.00    +0.000 OA
ATOM     23  O   UNL     1      11.431   1.622   0.000  0.00  0.00    +0.000 OA
ATOM     24  C   UNL     1       9.292   2.868   0.000  0.00  0.00    +0.000 A 
ATOM     25  C   UNL     1       9.289   2.043   0.000  0.00  0.00    +0.000 A 
ATOM     26  C   UNL     1      10.008   3.277   0.000  0.00  0.00    +0.000 A 
ATOM     27  C   UNL     1      10.002   1.627   0.000  0.00  0.00    +0.000 A 
ATOM     28  C   UNL     1      10.721   2.862   0.000  0.00  0.00    +0.000 A 
ATOM     29  C   UNL     1      10.718   2.037   0.000  0.00  0.00    +0.000 A 
ENDBRANCH  20  24
ENDBRANCH   6  13
BRANCH   4  30
ATOM     30  O   UNL     1       4.951   2.062   0.000  0.00  0.00    +0.000 OA
BRANCH  30  35
ATOM     31  O   UNL     1       4.236   0.825   0.000  0.00  0.00    +0.000 OA
ATOM     32  O   UNL     1       3.522   2.888   0.000  0.00  0.00    +0.000 OA
ATOM     33  O   UNL     1       2.093   2.062   0.000  0.00  0.00    +0.000 OA
ATOM     34  O   UNL     1       2.093   0.412   0.000  0.00  0.00    +0.000 OA
ATOM     35  C   UNL     1       4.236   1.650   0.000  0.00  0.00    +0.000 C 
ATOM     36  C   UNL     1       3.522   2.062   0.000  0.00  0.00    +0.000 C 
ATOM     37  C   UNL     1       2.808   1.650   0.000  0.00  0.00    +0.000 C 
ATOM     38  C   UNL     1       2.808   0.825   0.000  0.00  0.00    +0.000 C 
ATOM     39  C   UNL     1       3.522   0.412   0.000  0.00  0.00    +0.000 C 
ENDBRANCH  30  35
ENDBRANCH   4  30
BRANCH   8  40
ATOM     40  C   UNL     1       7.809   0.412   0.000  0.00  0.00    +0.000 C 
BRANCH  40  41
ATOM     41  O   UNL     1       7.809  -0.412   0.000  0.00  0.00    +0.000 OA
BRANCH  41  43
ATOM     42  O   UNL     1       9.238  -0.412   0.000  0.00  0.00    +0.000 OA
ATOM     43  C   UNL     1       8.523  -0.825   0.000  0.00  0.00    +0.000 C 
BRANCH  43  44
ATOM     44  C   UNL     1       8.523  -1.650   0.000  0.00  0.00    +0.000 C 
ATOM     45  C   UNL     1       9.238  -2.062   0.000  0.00  0.00    +0.000 C 
BRANCH  45  47
ATOM     46  O   UNL     1       9.238  -5.362   0.000  0.00  0.00    +0.000 OA
ATOM     47  C   UNL     1       9.238  -2.888   0.000  0.00  0.00    +0.000 A 
ATOM     48  C   UNL     1       8.523  -3.300   0.000  0.00  0.00    +0.000 A 
ATOM     49  C   UNL     1       9.952  -3.300   0.000  0.00  0.00    +0.000 A 
ATOM     50  C   UNL     1       8.523  -4.125   0.000  0.00  0.00    +0.000 A 
ATOM     51  C   UNL     1       9.952  -4.125   0.000  0.00  0.00    +0.000 A 
ATOM     52  C   UNL     1       9.238  -4.537   0.000  0.00  0.00    +0.000 A 
BRANCH  50  53
ATOM     53  O   UNL     1       7.809  -4.537   0.000  0.00  0.00    +0.000 OA
ATOM     54  C   UNL     1       7.809  -5.362   0.000  0.00  0.00    +0.000 C 
ENDBRANCH  50  53
ENDBRANCH  45  47
ENDBRANCH  43  44
ENDBRANCH  41  43
ENDBRANCH  40  41
ENDBRANCH   8  40
TORSDOF 10
