REMARK  Name = 44258894
REMARK  13 active torsions:
REMARK  status: ('A' for Active; 'I' for Inactive)
REMARK    1  A    between atoms: O_1  and  C_23
REMARK    2  A    between atoms: O_1  and  C_26
REMARK    3  A    between atoms: O_4  and  C_27
REMARK    4  A    between atoms: O_4  and  C_40
REMARK    5  A    between atoms: O_12  and  C_39
REMARK    6  A    between atoms: O_12  and  C_45
REMARK    7  A    between atoms: O_13  and  C_37
REMARK    8  A    between atoms: O_13  and  C_51
REMARK    9  A    between atoms: C_28  and  C_33
REMARK   10  A    between atoms: C_38  and  C_41
REMARK   11  A    between atoms: C_42  and  C_50
REMARK   12  A    between atoms: C_51  and  C_54
REMARK   13  A    between atoms: C_58  and  C_59
REMARK                            x       y       z     vdW  Elec       q    Type
REMARK                         _______ _______ _______ _____ _____    ______ ____
ROOT
ATOM      1  O   UNL     1       7.104  -0.562   0.000  0.00  0.00    +0.000 OA
ATOM      2  O   UNL     1       4.960  -1.800   0.000  0.00  0.00    +0.000 OA
ATOM      3  O   UNL     1       4.214  -0.565   0.000  0.00  0.00    +0.000 OA
ATOM      4  C   UNL     1       6.389  -1.800   0.000  0.00  0.00    +0.000 A 
ATOM      5  C   UNL     1       7.104  -1.387   0.000  0.00  0.00    +0.000 A 
ATOM      6  C   UNL     1       5.675  -1.387   0.000  0.00  0.00    +0.000 A 
ATOM      7  C   UNL     1       5.675  -0.562   0.000  0.00  0.00    +0.000 A 
ATOM      8  C   UNL     1       5.662   1.145   0.000  0.00  0.00    +0.000 A 
ATOM      9  C   UNL     1       6.389  -0.150   0.000  0.00  0.00    +0.000 A 
ATOM     10  C   UNL     1       6.402   0.710   0.000  0.00  0.00    +0.000 A 
ATOM     11  C   UNL     1       4.924  -0.144   0.000  0.00  0.00    +0.000 A 
ATOM     12  C   UNL     1       4.917   0.715   0.000  0.00  0.00    +0.000 A 
ENDROOT
BRANCH   5  14
ATOM     13  O   UNL     1       9.961  -3.037   0.000  0.00  0.00    +0.000 OA
ATOM     14  C   UNL     1       7.818  -1.800   0.000  0.00  0.00    +0.000 A 
ATOM     15  C   UNL     1       7.818  -2.625   0.000  0.00  0.00    +0.000 A 
ATOM     16  C   UNL     1       8.533  -1.387   0.000  0.00  0.00    +0.000 A 
ATOM     17  C   UNL     1       8.533  -3.037   0.000  0.00  0.00    +0.000 A 
ATOM     18  C   UNL     1       9.247  -1.800   0.000  0.00  0.00    +0.000 A 
ATOM     19  C   UNL     1       9.247  -2.625   0.000  0.00  0.00    +0.000 A 
ENDBRANCH   5  14
BRANCH   4  20
ATOM     20  O   UNL     1       6.389  -2.625   0.000  0.00  0.00    +0.000 OA
BRANCH  20  27
ATOM     21  O   UNL     1       4.960  -2.625   0.000  0.00  0.00    +0.000 OA
ATOM     22  O   UNL     1       4.960  -5.100   0.000  0.00  0.00    +0.000 OA
ATOM     23  O   UNL     1       3.531  -4.275   0.000  0.00  0.00    +0.000 OA
ATOM     24  C   UNL     1       5.675  -3.862   0.000  0.00  0.00    +0.000 C 
ATOM     25  C   UNL     1       4.960  -4.275   0.000  0.00  0.00    +0.000 C 
ATOM     26  C   UNL     1       4.246  -3.862   0.000  0.00  0.00    +0.000 C 
ATOM     27  C   UNL     1       5.675  -3.037   0.000  0.00  0.00    +0.000 C 
ATOM     28  C   UNL     1       4.246  -3.037   0.000  0.00  0.00    +0.000 C 
BRANCH  28  30
ATOM     29  O   UNL     1       2.817  -3.037   0.000  0.00  0.00    +0.000 OA
ATOM     30  C   UNL     1       3.531  -2.625   0.000  0.00  0.00    +0.000 C 
ENDBRANCH  28  30
BRANCH  24  31
ATOM     31  O   UNL     1       6.389  -4.275   0.000  0.00  0.00    +0.000 OA
BRANCH  31  36
ATOM     32  O   UNL     1       5.675  -5.512   0.000  0.00  0.00    +0.000 OA
ATOM     33  O   UNL     1       7.818  -5.100   0.000  0.00  0.00    +0.000 OA
ATOM     34  O   UNL     1       7.818  -6.750   0.000  0.00  0.00    +0.000 OA
ATOM     35  O   UNL     1       6.389  -7.575   0.000  0.00  0.00    +0.000 OA
ATOM     36  C   UNL     1       6.389  -5.100   0.000  0.00  0.00    +0.000 C 
ATOM     37  C   UNL     1       7.104  -5.512   0.000  0.00  0.00    +0.000 C 
ATOM     38  C   UNL     1       7.104  -6.337   0.000  0.00  0.00    +0.000 C 
ATOM     39  C   UNL     1       6.389  -6.750   0.000  0.00  0.00    +0.000 C 
ATOM     40  C   UNL     1       5.675  -6.337   0.000  0.00  0.00    +0.000 C 
ATOM     41  C   UNL     1       4.960  -6.750   0.000  0.00  0.00    +0.000 C 
ENDBRANCH  31  36
ENDBRANCH  24  31
ENDBRANCH  20  27
ENDBRANCH   4  20
BRANCH   8  42
ATOM     42  O   UNL     1       5.665   1.970   0.000  0.00  0.00    +0.000 OA
BRANCH  42  50
ATOM     43  O   UNL     1       4.236   1.976   0.000  0.00  0.00    +0.000 OA
ATOM     44  O   UNL     1       4.245   4.451   0.000  0.00  0.00    +0.000 OA
ATOM     45  O   UNL     1       2.813   3.631   0.000  0.00  0.00    +0.000 OA
ATOM     46  C   UNL     1       4.242   3.626   0.000  0.00  0.00    +0.000 C 
ATOM     47  C   UNL     1       3.526   3.216   0.000  0.00  0.00    +0.000 C 
ATOM     48  C   UNL     1       4.955   3.210   0.000  0.00  0.00    +0.000 C 
ATOM     49  C   UNL     1       3.523   2.391   0.000  0.00  0.00    +0.000 C 
ATOM     50  C   UNL     1       4.952   2.385   0.000  0.00  0.00    +0.000 C 
BRANCH  49  52
ATOM     51  O   UNL     1       2.094   2.396   0.000  0.00  0.00    +0.000 OA
ATOM     52  C   UNL     1       2.807   1.981   0.000  0.00  0.00    +0.000 C 
ENDBRANCH  49  52
BRANCH  48  53
ATOM     53  O   UNL     1       5.671   3.620   0.000  0.00  0.00    +0.000 OA
BRANCH  53  55
ATOM     54  O   UNL     1       4.961   4.860   0.000  0.00  0.00    +0.000 OA
ATOM     55  C   UNL     1       5.674   4.445   0.000  0.00  0.00    +0.000 C 
BRANCH  55  56
ATOM     56  C   UNL     1       6.390   4.855   0.000  0.00  0.00    +0.000 C 
ATOM     57  C   UNL     1       6.394   5.680   0.000  0.00  0.00    +0.000 C 
BRANCH  57  59
ATOM     58  O   UNL     1       9.258   7.319   0.000  0.00  0.00    +0.000 OA
ATOM     59  C   UNL     1       7.109   6.090   0.000  0.00  0.00    +0.000 A 
ATOM     60  C   UNL     1       7.822   5.674   0.000  0.00  0.00    +0.000 A 
ATOM     61  C   UNL     1       7.113   6.915   0.000  0.00  0.00    +0.000 A 
ATOM     62  C   UNL     1       8.538   6.084   0.000  0.00  0.00    +0.000 A 
ATOM     63  C   UNL     1       7.829   7.324   0.000  0.00  0.00    +0.000 A 
ATOM     64  C   UNL     1       8.542   6.909   0.000  0.00  0.00    +0.000 A 
ENDBRANCH  57  59
ENDBRANCH  55  56
ENDBRANCH  53  55
ENDBRANCH  48  53
ENDBRANCH  42  50
ENDBRANCH   8  42
TORSDOF 13
