REMARK  Name = 44257739
REMARK  6 active torsions:
REMARK  status: ('A' for Active; 'I' for Inactive)
REMARK    1  A    between atoms: O_10  and  C_29
REMARK    2  A    between atoms: O_10  and  C_37
REMARK    3  A    between atoms: C_16  and  C_21
REMARK    4  A    between atoms: C_20  and  C_29
REMARK    5  A    between atoms: C_22  and  C_24
REMARK    6  A    between atoms: C_34  and  C_36
REMARK                            x       y       z     vdW  Elec       q    Type
REMARK                         _______ _______ _______ _____ _____    ______ ____
ROOT
ATOM      1  O   UNL     1       7.117   0.256   0.000  0.00  0.00    +0.000 OA
ATOM      2  O   UNL     1       4.236   0.285   0.000  0.00  0.00    +0.000 OA
ATOM      3  O   UNL     1       5.665   2.760   0.000  0.00  0.00    +0.000 OA
ATOM      4  O   UNL     1       7.108   2.788   0.000  0.00  0.00    +0.000 OA
ATOM      5  C   UNL     1       5.665   0.285   0.000  0.00  0.00    +0.000 A 
ATOM      6  C   UNL     1       4.951   1.522   0.000  0.00  0.00    +0.000 A 
ATOM      7  C   UNL     1       4.951   0.697   0.000  0.00  0.00    +0.000 A 
ATOM      8  C   UNL     1       6.380   0.697   0.000  0.00  0.00    +0.000 A 
ATOM      9  C   UNL     1       5.665   1.935   0.000  0.00  0.00    +0.000 A 
ATOM     10  C   UNL     1       6.380   1.522   0.000  0.00  0.00    +0.000 A 
ATOM     11  C   UNL     1       7.117   1.963   0.000  0.00  0.00    +0.000 A 
ATOM     12  C   UNL     1       7.865   0.680   0.000  0.00  0.00    +0.000 A 
ATOM     13  C   UNL     1       7.865   1.539   0.000  0.00  0.00    +0.000 A 
ENDROOT
BRANCH   5  18
ATOM     14  O   UNL     1       6.380  -0.953   0.000  0.00  0.00    +0.000 OA
ATOM     15  O   UNL     1       4.236  -0.540   0.000  0.00  0.00    +0.000 OA
ATOM     16  O   UNL     1       4.236  -2.190   0.000  0.00  0.00    +0.000 OA
ATOM     17  O   UNL     1       5.665  -3.015   0.000  0.00  0.00    +0.000 OA
ATOM     18  C   UNL     1       5.665  -0.540   0.000  0.00  0.00    +0.000 C 
ATOM     19  C   UNL     1       4.951  -0.953   0.000  0.00  0.00    +0.000 C 
ATOM     20  C   UNL     1       4.951  -1.778   0.000  0.00  0.00    +0.000 C 
ATOM     21  C   UNL     1       5.665  -2.190   0.000  0.00  0.00    +0.000 C 
ATOM     22  C   UNL     1       6.380  -1.778   0.000  0.00  0.00    +0.000 C 
BRANCH  22  23
ATOM     23  C   UNL     1       7.094  -2.190   0.000  0.00  0.00    +0.000 C 
BRANCH  23  24
ATOM     24  O   UNL     1       7.094  -3.015   0.000  0.00  0.00    +0.000 OA
BRANCH  24  26
ATOM     25  O   UNL     1       8.523  -3.015   0.000  0.00  0.00    +0.000 OA
ATOM     26  C   UNL     1       7.809  -3.428   0.000  0.00  0.00    +0.000 C 
ATOM     27  C   UNL     1       7.809  -4.253   0.000  0.00  0.00    +0.000 C 
ENDBRANCH  24  26
ENDBRANCH  23  24
ENDBRANCH  22  23
ENDBRANCH   5  18
BRANCH   6  32
ATOM     28  O   UNL     1       3.522   1.522   0.000  0.00  0.00    +0.000 OA
ATOM     29  O   UNL     1       4.951   3.172   0.000  0.00  0.00    +0.000 OA
ATOM     30  O   UNL     1       3.522   3.997   0.000  0.00  0.00    +0.000 OA
ATOM     31  O   UNL     1       2.093   3.172   0.000  0.00  0.00    +0.000 OA
ATOM     32  C   UNL     1       4.236   1.935   0.000  0.00  0.00    +0.000 C 
ATOM     33  C   UNL     1       4.236   2.760   0.000  0.00  0.00    +0.000 C 
ATOM     34  C   UNL     1       3.522   3.172   0.000  0.00  0.00    +0.000 C 
ATOM     35  C   UNL     1       2.808   2.760   0.000  0.00  0.00    +0.000 C 
ATOM     36  C   UNL     1       2.808   1.935   0.000  0.00  0.00    +0.000 C 
ENDBRANCH   6  32
BRANCH  12  38
ATOM     37  O   UNL     1      10.716  -0.981   0.000  0.00  0.00    +0.000 OA
ATOM     38  C   UNL     1       8.578   0.265   0.000  0.00  0.00    +0.000 A 
ATOM     39  C   UNL     1       9.294   0.674   0.000  0.00  0.00    +0.000 A 
ATOM     40  C   UNL     1       8.575  -0.560   0.000  0.00  0.00    +0.000 A 
ATOM     41  C   UNL     1      10.007   0.259   0.000  0.00  0.00    +0.000 A 
ATOM     42  C   UNL     1       9.287  -0.976   0.000  0.00  0.00    +0.000 A 
ATOM     43  C   UNL     1      10.004  -0.566   0.000  0.00  0.00    +0.000 A 
ENDBRANCH  12  38
TORSDOF 6
