REMARK  Name = 44258418
REMARK  9 active torsions:
REMARK  status: ('A' for Active; 'I' for Inactive)
REMARK    1  A    between atoms: O_2  and  C_20
REMARK    2  A    between atoms: O_2  and  C_22
REMARK    3  A    between atoms: O_9  and  C_23
REMARK    4  A    between atoms: O_9  and  C_32
REMARK    5  A    between atoms: O_14  and  C_43
REMARK    6  A    between atoms: C_19  and  C_21
REMARK    7  A    between atoms: C_29  and  C_31
REMARK    8  A    between atoms: C_32  and  C_35
REMARK    9  A    between atoms: C_39  and  C_40
REMARK                            x       y       z     vdW  Elec       q    Type
REMARK                         _______ _______ _______ _____ _____    ______ ____
ROOT
ATOM      1  O   UNL     1       4.523   1.101   0.000  0.00  0.00    +0.000 OA
ATOM      2  O   UNL     1       7.417   1.095   0.000  0.00  0.00    +0.000 OA
ATOM      3  O   UNL     1       6.721   2.359   0.000  0.00  0.00    +0.000 OA
ATOM      4  C   UNL     1       5.988  -0.555   0.000  0.00  0.00    +0.000 A 
ATOM      5  C   UNL     1       6.702  -0.142   0.000  0.00  0.00    +0.000 A 
ATOM      6  C   UNL     1       5.274  -0.142   0.000  0.00  0.00    +0.000 A 
ATOM      7  C   UNL     1       5.274   0.683   0.000  0.00  0.00    +0.000 A 
ATOM      8  C   UNL     1       5.988   1.095   0.000  0.00  0.00    +0.000 A 
ATOM      9  C   UNL     1       6.702   0.683   0.000  0.00  0.00    +0.000 A 
ATOM     10  C   UNL     1       6.001   1.954   0.000  0.00  0.00    +0.000 A 
ATOM     11  C   UNL     1       4.516   1.960   0.000  0.00  0.00    +0.000 A 
ATOM     12  C   UNL     1       5.260   2.390   0.000  0.00  0.00    +0.000 A 
ENDROOT
BRANCH  11  14
ATOM     13  O   UNL     1       1.652   3.599   0.000  0.00  0.00    +0.000 OA
ATOM     14  C   UNL     1       3.800   2.370   0.000  0.00  0.00    +0.000 A 
ATOM     15  C   UNL     1       3.797   3.195   0.000  0.00  0.00    +0.000 A 
ATOM     16  C   UNL     1       3.087   1.955   0.000  0.00  0.00    +0.000 A 
ATOM     17  C   UNL     1       3.081   3.605   0.000  0.00  0.00    +0.000 A 
ATOM     18  C   UNL     1       2.371   2.364   0.000  0.00  0.00    +0.000 A 
ATOM     19  C   UNL     1       2.368   3.189   0.000  0.00  0.00    +0.000 A 
ENDBRANCH  11  14
BRANCH   4  20
ATOM     20  O   UNL     1       5.988  -1.380   0.000  0.00  0.00    +0.000 OA
BRANCH  20  29
ATOM     21  O   UNL     1       4.559  -1.380   0.000  0.00  0.00    +0.000 OA
ATOM     22  O   UNL     1       4.559  -3.855   0.000  0.00  0.00    +0.000 OA
ATOM     23  O   UNL     1       3.130  -3.030   0.000  0.00  0.00    +0.000 OA
ATOM     24  O   UNL     1       5.988  -3.030   0.000  0.00  0.00    +0.000 OA
ATOM     25  C   UNL     1       4.559  -3.030   0.000  0.00  0.00    +0.000 C 
ATOM     26  C   UNL     1       3.845  -2.617   0.000  0.00  0.00    +0.000 C 
ATOM     27  C   UNL     1       5.274  -2.617   0.000  0.00  0.00    +0.000 C 
ATOM     28  C   UNL     1       3.845  -1.792   0.000  0.00  0.00    +0.000 C 
ATOM     29  C   UNL     1       5.274  -1.792   0.000  0.00  0.00    +0.000 C 
BRANCH  28  32
ATOM     30  O   UNL     1       2.416  -1.792   0.000  0.00  0.00    +0.000 OA
ATOM     31  O   UNL     1       3.130  -0.555   0.000  0.00  0.00    +0.000 OA
ATOM     32  C   UNL     1       3.130  -1.380   0.000  0.00  0.00    +0.000 C 
ENDBRANCH  28  32
ENDBRANCH  20  29
ENDBRANCH   4  20
BRANCH   5  33
ATOM     33  O   UNL     1       7.417  -0.555   0.000  0.00  0.00    +0.000 OA
BRANCH  33  35
ATOM     34  O   UNL     1       8.131   0.683   0.000  0.00  0.00    +0.000 OA
ATOM     35  C   UNL     1       8.131  -0.142   0.000  0.00  0.00    +0.000 C 
BRANCH  35  36
ATOM     36  C   UNL     1       8.846  -0.555   0.000  0.00  0.00    +0.000 C 
ATOM     37  C   UNL     1       9.560  -0.142   0.000  0.00  0.00    +0.000 C 
BRANCH  37  39
ATOM     38  O   UNL     1      12.418  -1.792   0.000  0.00  0.00    +0.000 OA
ATOM     39  C   UNL     1      10.275  -0.555   0.000  0.00  0.00    +0.000 A 
ATOM     40  C   UNL     1      10.275  -1.380   0.000  0.00  0.00    +0.000 A 
ATOM     41  C   UNL     1      10.989  -0.142   0.000  0.00  0.00    +0.000 A 
ATOM     42  C   UNL     1      10.989  -1.792   0.000  0.00  0.00    +0.000 A 
ATOM     43  C   UNL     1      11.704  -0.555   0.000  0.00  0.00    +0.000 A 
ATOM     44  C   UNL     1      11.704  -1.380   0.000  0.00  0.00    +0.000 A 
BRANCH  42  45
ATOM     45  O   UNL     1      10.989  -2.617   0.000  0.00  0.00    +0.000 OA
ATOM     46  C   UNL     1      11.704  -3.030   0.000  0.00  0.00    +0.000 C 
ENDBRANCH  42  45
ENDBRANCH  37  39
ENDBRANCH  35  36
ENDBRANCH  33  35
ENDBRANCH   5  33
TORSDOF 9
