REMARK  Name = 131833694
REMARK  6 active torsions:
REMARK  status: ('A' for Active; 'I' for Inactive)
REMARK    1  A    between atoms: O_2  and  C_20
REMARK    2  A    between atoms: O_2  and  C_26
REMARK    3  A    between atoms: O_15  and  C_41
REMARK    4  A    between atoms: C_19  and  C_24
REMARK    5  A    between atoms: C_23  and  C_31
REMARK    6  A    between atoms: C_37  and  C_38
REMARK                            x       y       z     vdW  Elec       q    Type
REMARK                         _______ _______ _______ _____ _____    ______ ____
ROOT
ATOM      1  O   UNL     1       6.162   0.965   0.000  0.00  0.00    +0.000 OA
ATOM      2  O   UNL     1       8.351  -0.909   0.000  0.00  0.00    +0.000 OA
ATOM      3  O   UNL     1       4.542  -0.981   0.000  0.00  0.00    +0.000 OA
ATOM      4  C   UNL     1       7.008  -1.397   0.000  0.00  0.00    +0.000 A 
ATOM      5  C   UNL     1       6.196  -1.254   0.000  0.00  0.00    +0.000 A 
ATOM      6  C   UNL     1       5.913  -0.479   0.000  0.00  0.00    +0.000 A 
ATOM      7  C   UNL     1       7.538  -0.765   0.000  0.00  0.00    +0.000 A 
ATOM      8  C   UNL     1       6.444   0.153   0.000  0.00  0.00    +0.000 A 
ATOM      9  C   UNL     1       7.256   0.010   0.000  0.00  0.00    +0.000 A 
ATOM     10  C   UNL     1       5.065  -0.343   0.000  0.00  0.00    +0.000 A 
ATOM     11  C   UNL     1       4.765   0.463   0.000  0.00  0.00    +0.000 A 
ATOM     12  C   UNL     1       5.317   1.121   0.000  0.00  0.00    +0.000 A 
ENDROOT
BRANCH   4  17
ATOM     13  O   UNL     1       6.760  -2.804   0.000  0.00  0.00    +0.000 OA
ATOM     14  O   UNL     1       8.633  -1.684   0.000  0.00  0.00    +0.000 OA
ATOM     15  O   UNL     1       9.197  -3.234   0.000  0.00  0.00    +0.000 OA
ATOM     16  O   UNL     1       8.137  -4.498   0.000  0.00  0.00    +0.000 OA
ATOM     17  C   UNL     1       7.290  -2.173   0.000  0.00  0.00    +0.000 C 
ATOM     18  C   UNL     1       8.103  -2.316   0.000  0.00  0.00    +0.000 C 
ATOM     19  C   UNL     1       8.385  -3.091   0.000  0.00  0.00    +0.000 C 
ATOM     20  C   UNL     1       7.042  -3.580   0.000  0.00  0.00    +0.000 C 
ATOM     21  C   UNL     1       7.855  -3.723   0.000  0.00  0.00    +0.000 C 
ATOM     22  C   UNL     1       6.512  -4.212   0.000  0.00  0.00    +0.000 C 
ENDBRANCH   4  17
BRANCH  12  24
ATOM     23  O   UNL     1       4.200   4.226   0.000  0.00  0.00    +0.000 OA
ATOM     24  C   UNL     1       5.038   1.897   0.000  0.00  0.00    +0.000 A 
ATOM     25  C   UNL     1       4.226   2.044   0.000  0.00  0.00    +0.000 A 
ATOM     26  C   UNL     1       5.571   2.527   0.000  0.00  0.00    +0.000 A 
ATOM     27  C   UNL     1       3.947   2.820   0.000  0.00  0.00    +0.000 A 
ATOM     28  C   UNL     1       5.292   3.304   0.000  0.00  0.00    +0.000 A 
ATOM     29  C   UNL     1       4.480   3.450   0.000  0.00  0.00    +0.000 A 
BRANCH  27  30
ATOM     30  O   UNL     1       3.135   2.966   0.000  0.00  0.00    +0.000 OA
ATOM     31  C   UNL     1       2.856   3.743   0.000  0.00  0.00    +0.000 C 
ENDBRANCH  27  30
ENDBRANCH  12  24
BRANCH   5  32
ATOM     32  O   UNL     1       5.665  -1.886   0.000  0.00  0.00    +0.000 OA
BRANCH  32  39
ATOM     33  O   UNL     1       4.236  -1.886   0.000  0.00  0.00    +0.000 OA
ATOM     34  O   UNL     1       5.665  -3.536   0.000  0.00  0.00    +0.000 OA
ATOM     35  O   UNL     1       4.236  -4.361   0.000  0.00  0.00    +0.000 OA
ATOM     36  O   UNL     1       2.808  -3.536   0.000  0.00  0.00    +0.000 OA
ATOM     37  C   UNL     1       4.951  -3.123   0.000  0.00  0.00    +0.000 C 
ATOM     38  C   UNL     1       4.236  -3.536   0.000  0.00  0.00    +0.000 C 
ATOM     39  C   UNL     1       4.951  -2.299   0.000  0.00  0.00    +0.000 C 
ATOM     40  C   UNL     1       3.522  -3.123   0.000  0.00  0.00    +0.000 C 
ATOM     41  C   UNL     1       3.522  -2.299   0.000  0.00  0.00    +0.000 C 
BRANCH  41  44
ATOM     42  O   UNL     1       2.093  -2.299   0.000  0.00  0.00    +0.000 OA
ATOM     43  O   UNL     1       2.808  -1.061   0.000  0.00  0.00    +0.000 OA
ATOM     44  C   UNL     1       2.808  -1.886   0.000  0.00  0.00    +0.000 C 
ENDBRANCH  41  44
ENDBRANCH  32  39
ENDBRANCH   5  32
TORSDOF 6
