REMARK  Name = 131838617
REMARK  13 active torsions:
REMARK  status: ('A' for Active; 'I' for Inactive)
REMARK    1  A    between atoms: O_1  and  C_23
REMARK    2  A    between atoms: O_1  and  C_25
REMARK    3  A    between atoms: O_7  and  C_28
REMARK    4  A    between atoms: O_7  and  C_33
REMARK    5  A    between atoms: O_9  and  C_31
REMARK    6  A    between atoms: O_9  and  C_39
REMARK    7  A    between atoms: O_12  and  C_37
REMARK    8  A    between atoms: O_12  and  C_49
REMARK    9  A    between atoms: C_22  and  C_31
REMARK   10  A    between atoms: C_30  and  C_32
REMARK   11  A    between atoms: C_38  and  C_48
REMARK   12  A    between atoms: C_39  and  C_46
REMARK   13  A    between atoms: C_42  and  C_43
REMARK                            x       y       z     vdW  Elec       q    Type
REMARK                         _______ _______ _______ _____ _____    ______ ____
ROOT
ATOM      1  O   UNL     1       5.665  -3.295   0.000  0.00  0.00    +0.000 OA
ENDROOT
BRANCH   1   8
ATOM      2  O   UNL     1       4.236  -3.295   0.000  0.00  0.00    +0.000 OA
ATOM      3  O   UNL     1       4.236  -5.770   0.000  0.00  0.00    +0.000 OA
ATOM      4  O   UNL     1       2.808  -4.945   0.000  0.00  0.00    +0.000 OA
ATOM      5  C   UNL     1       4.951  -4.533   0.000  0.00  0.00    +0.000 C 
ATOM      6  C   UNL     1       4.236  -4.945   0.000  0.00  0.00    +0.000 C 
ATOM      7  C   UNL     1       3.522  -4.533   0.000  0.00  0.00    +0.000 C 
ATOM      8  C   UNL     1       4.951  -3.708   0.000  0.00  0.00    +0.000 C 
ATOM      9  C   UNL     1       3.522  -3.708   0.000  0.00  0.00    +0.000 C 
BRANCH   9  11
ATOM     10  O   UNL     1       2.093  -3.708   0.000  0.00  0.00    +0.000 OA
ATOM     11  C   UNL     1       2.808  -3.295   0.000  0.00  0.00    +0.000 C 
ENDBRANCH   9  11
BRANCH   5  12
ATOM     12  O   UNL     1       5.665  -4.945   0.000  0.00  0.00    +0.000 OA
BRANCH  12  18
ATOM     13  O   UNL     1       6.466  -3.712   0.000  0.00  0.00    +0.000 OA
ATOM     14  O   UNL     1       8.400  -3.843   0.000  0.00  0.00    +0.000 OA
ATOM     15  O   UNL     1       7.305  -5.675   0.000  0.00  0.00    +0.000 OA
ATOM     16  C   UNL     1       7.686  -4.255   0.000  0.00  0.00    +0.000 C 
ATOM     17  C   UNL     1       7.133  -4.869   0.000  0.00  0.00    +0.000 C 
ATOM     18  C   UNL     1       6.380  -4.533   0.000  0.00  0.00    +0.000 C 
ATOM     19  C   UNL     1       7.273  -3.541   0.000  0.00  0.00    +0.000 C 
BRANCH  16  20
ATOM     20  C   UNL     1       8.299  -4.807   0.000  0.00  0.00    +0.000 C 
BRANCH  20  21
ATOM     21  O   UNL     1       9.083  -4.552   0.000  0.00  0.00    +0.000 OA
BRANCH  21  23
ATOM     22  O   UNL     1       9.525  -5.912   0.000  0.00  0.00    +0.000 OA
ATOM     23  C   UNL     1       9.696  -5.104   0.000  0.00  0.00    +0.000 C 
BRANCH  23  25
ATOM     24  N   UNL     1      11.554  -4.067   0.000  0.00  0.00    +0.000 NA
ATOM     25  C   UNL     1      10.481  -4.849   0.000  0.00  0.00    +0.000 A 
ATOM     26  C   UNL     1      11.144  -5.332   0.000  0.00  0.00    +0.000 A 
ATOM     27  C   UNL     1      10.734  -4.069   0.000  0.00  0.00    +0.000 A 
ATOM     28  C   UNL     1      11.811  -4.846   0.000  0.00  0.00    +0.000 A 
ATOM     29  C   UNL     1      11.232  -6.152   0.000  0.00  0.00    +0.000 A 
ATOM     30  C   UNL     1      12.565  -5.180   0.000  0.00  0.00    +0.000 A 
ATOM     31  C   UNL     1      11.986  -6.487   0.000  0.00  0.00    +0.000 A 
ATOM     32  C   UNL     1      12.652  -6.001   0.000  0.00  0.00    +0.000 A 
ENDBRANCH  23  25
ENDBRANCH  21  23
ENDBRANCH  20  21
ENDBRANCH  16  20
ENDBRANCH  12  18
ENDBRANCH   5  12
ENDBRANCH   1   8
BRANCH   1  33
ATOM     33  C   UNL     1       5.665  -2.470   0.000  0.00  0.00    +0.000 A 
ATOM     34  C   UNL     1       6.380  -2.058   0.000  0.00  0.00    +0.000 A 
ATOM     35  C   UNL     1       4.951  -2.058   0.000  0.00  0.00    +0.000 A 
ATOM     36  C   UNL     1       5.665  -0.820   0.000  0.00  0.00    +0.000 A 
ATOM     37  C   UNL     1       6.380  -1.233   0.000  0.00  0.00    +0.000 A 
ATOM     38  C   UNL     1       4.951  -1.233   0.000  0.00  0.00    +0.000 A 
BRANCH  36  41
ATOM     39  O   UNL     1       6.380   0.417   0.000  0.00  0.00    +0.000 OA
ATOM     40  O   UNL     1       4.236   1.655   0.000  0.00  0.00    +0.000 OA
ATOM     41  C   UNL     1       5.665   0.005   0.000  0.00  0.00    +0.000 C 
ATOM     42  C   UNL     1       4.951   0.417   0.000  0.00  0.00    +0.000 C 
ATOM     43  C   UNL     1       7.137   2.519   0.000  0.00  0.00    +0.000 A 
ATOM     44  C   UNL     1       6.380   1.242   0.000  0.00  0.00    +0.000 A 
ATOM     45  C   UNL     1       5.665   1.655   0.000  0.00  0.00    +0.000 A 
ATOM     46  C   UNL     1       4.951   1.242   0.000  0.00  0.00    +0.000 C 
ATOM     47  C   UNL     1       7.131   1.660   0.000  0.00  0.00    +0.000 A 
ATOM     48  C   UNL     1       6.393   2.949   0.000  0.00  0.00    +0.000 A 
ATOM     49  C   UNL     1       5.652   2.514   0.000  0.00  0.00    +0.000 A 
BRANCH  43  50
ATOM     50  O   UNL     1       7.853   2.929   0.000  0.00  0.00    +0.000 OA
BRANCH  50  58
ATOM     51  O   UNL     1       8.572   4.164   0.000  0.00  0.00    +0.000 OA
ATOM     52  O   UNL     1       6.434   5.410   0.000  0.00  0.00    +0.000 OA
ATOM     53  O   UNL     1       6.428   3.760   0.000  0.00  0.00    +0.000 OA
ATOM     54  O   UNL     1       7.866   6.229   0.000  0.00  0.00    +0.000 OA
ATOM     55  C   UNL     1       7.147   4.995   0.000  0.00  0.00    +0.000 C 
ATOM     56  C   UNL     1       7.144   4.170   0.000  0.00  0.00    +0.000 C 
ATOM     57  C   UNL     1       7.863   5.404   0.000  0.00  0.00    +0.000 C 
ATOM     58  C   UNL     1       7.856   3.754   0.000  0.00  0.00    +0.000 C 
ATOM     59  C   UNL     1       8.576   4.989   0.000  0.00  0.00    +0.000 C 
BRANCH  59  62
ATOM     60  O   UNL     1      10.005   4.984   0.000  0.00  0.00    +0.000 OA
ATOM     61  O   UNL     1       9.295   6.224   0.000  0.00  0.00    +0.000 OA
ATOM     62  C   UNL     1       9.292   5.399   0.000  0.00  0.00    +0.000 C 
ENDBRANCH  59  62
ENDBRANCH  50  58
ENDBRANCH  43  50
ENDBRANCH  36  41
ENDBRANCH   1  33
TORSDOF 13
