REMARK  Name = 74978112
REMARK  13 active torsions:
REMARK  status: ('A' for Active; 'I' for Inactive)
REMARK    1  A    between atoms: O_1  and  C_27
REMARK    2  A    between atoms: O_1  and  C_32
REMARK    3  A    between atoms: O_2  and  C_28
REMARK    4  A    between atoms: O_2  and  C_34
REMARK    5  A    between atoms: O_7  and  C_38
REMARK    6  A    between atoms: O_7  and  C_51
REMARK    7  A    between atoms: O_10  and  C_45
REMARK    8  A    between atoms: O_10  and  C_52
REMARK    9  A    between atoms: C_31  and  C_47
REMARK   10  A    between atoms: C_40  and  C_48
REMARK   11  A    between atoms: C_44  and  C_49
REMARK   12  A    between atoms: C_46  and  C_50
REMARK   13  A    between atoms: C_54  and  C_60
REMARK                            x       y       z     vdW  Elec       q    Type
REMARK                         _______ _______ _______ _____ _____    ______ ____
ROOT
ATOM      1  O   UNL     1       7.808  -0.239   0.000  0.00  0.00    +0.000 OA
ATOM      2  O   UNL     1       5.665  -1.477   0.000  0.00  0.00    +0.000 OA
ATOM      3  O   UNL     1       4.919  -0.242   0.000  0.00  0.00    +0.000 OA
ATOM      4  C   UNL     1       7.094  -1.477   0.000  0.00  0.00    +0.000 A 
ATOM      5  C   UNL     1       6.366   1.468   0.000  0.00  0.00    +0.000 A 
ATOM      6  C   UNL     1       6.379  -1.064   0.000  0.00  0.00    +0.000 A 
ATOM      7  C   UNL     1       7.808  -1.064   0.000  0.00  0.00    +0.000 A 
ATOM      8  C   UNL     1       6.379  -0.239   0.000  0.00  0.00    +0.000 A 
ATOM      9  C   UNL     1       7.094   0.173   0.000  0.00  0.00    +0.000 A 
ATOM     10  C   UNL     1       7.107   1.032   0.000  0.00  0.00    +0.000 A 
ATOM     11  C   UNL     1       5.622   1.038   0.000  0.00  0.00    +0.000 A 
ATOM     12  C   UNL     1       5.628   0.179   0.000  0.00  0.00    +0.000 A 
ENDROOT
BRANCH   7  14
ATOM     13  O   UNL     1      10.666  -2.714   0.000  0.00  0.00    +0.000 OA
ATOM     14  C   UNL     1       8.523  -1.477   0.000  0.00  0.00    +0.000 A 
ATOM     15  C   UNL     1       8.523  -2.302   0.000  0.00  0.00    +0.000 A 
ATOM     16  C   UNL     1       9.237  -1.064   0.000  0.00  0.00    +0.000 A 
ATOM     17  C   UNL     1       9.237  -2.714   0.000  0.00  0.00    +0.000 A 
ATOM     18  C   UNL     1       9.952  -1.477   0.000  0.00  0.00    +0.000 A 
ATOM     19  C   UNL     1       9.952  -2.302   0.000  0.00  0.00    +0.000 A 
ENDBRANCH   7  14
BRANCH   4  20
ATOM     20  O   UNL     1       7.094  -2.302   0.000  0.00  0.00    +0.000 OA
BRANCH  20  27
ATOM     21  O   UNL     1       5.665  -2.302   0.000  0.00  0.00    +0.000 OA
ATOM     22  O   UNL     1       5.665  -4.777   0.000  0.00  0.00    +0.000 OA
ATOM     23  O   UNL     1       4.236  -3.952   0.000  0.00  0.00    +0.000 OA
ATOM     24  C   UNL     1       6.379  -3.539   0.000  0.00  0.00    +0.000 C 
ATOM     25  C   UNL     1       5.665  -3.952   0.000  0.00  0.00    +0.000 C 
ATOM     26  C   UNL     1       4.950  -3.539   0.000  0.00  0.00    +0.000 C 
ATOM     27  C   UNL     1       6.379  -2.714   0.000  0.00  0.00    +0.000 C 
ATOM     28  C   UNL     1       4.950  -2.714   0.000  0.00  0.00    +0.000 C 
BRANCH  28  30
ATOM     29  O   UNL     1       3.521  -2.714   0.000  0.00  0.00    +0.000 OA
ATOM     30  C   UNL     1       4.236  -2.302   0.000  0.00  0.00    +0.000 C 
ENDBRANCH  28  30
BRANCH  24  31
ATOM     31  O   UNL     1       7.094  -3.952   0.000  0.00  0.00    +0.000 OA
BRANCH  31  36
ATOM     32  O   UNL     1       6.379  -5.189   0.000  0.00  0.00    +0.000 OA
ATOM     33  O   UNL     1       8.523  -4.777   0.000  0.00  0.00    +0.000 OA
ATOM     34  O   UNL     1       8.523  -6.427   0.000  0.00  0.00    +0.000 OA
ATOM     35  O   UNL     1       7.094  -7.252   0.000  0.00  0.00    +0.000 OA
ATOM     36  C   UNL     1       7.094  -4.777   0.000  0.00  0.00    +0.000 C 
ATOM     37  C   UNL     1       7.808  -5.189   0.000  0.00  0.00    +0.000 C 
ATOM     38  C   UNL     1       7.808  -6.014   0.000  0.00  0.00    +0.000 C 
ATOM     39  C   UNL     1       7.094  -6.427   0.000  0.00  0.00    +0.000 C 
ATOM     40  C   UNL     1       6.379  -6.014   0.000  0.00  0.00    +0.000 C 
BRANCH  40  42
ATOM     41  O   UNL     1       4.950  -6.014   0.000  0.00  0.00    +0.000 OA
ATOM     42  C   UNL     1       5.665  -6.427   0.000  0.00  0.00    +0.000 C 
ENDBRANCH  40  42
ENDBRANCH  31  36
ENDBRANCH  24  31
ENDBRANCH  20  27
ENDBRANCH   4  20
BRANCH   5  43
ATOM     43  O   UNL     1       6.369   2.293   0.000  0.00  0.00    +0.000 OA
BRANCH  43  51
ATOM     44  O   UNL     1       4.940   2.298   0.000  0.00  0.00    +0.000 OA
ATOM     45  O   UNL     1       4.950   4.773   0.000  0.00  0.00    +0.000 OA
ATOM     46  O   UNL     1       6.376   3.943   0.000  0.00  0.00    +0.000 OA
ATOM     47  C   UNL     1       4.231   3.538   0.000  0.00  0.00    +0.000 C 
ATOM     48  C   UNL     1       4.947   3.948   0.000  0.00  0.00    +0.000 C 
ATOM     49  C   UNL     1       4.228   2.713   0.000  0.00  0.00    +0.000 C 
ATOM     50  C   UNL     1       5.660   3.533   0.000  0.00  0.00    +0.000 C 
ATOM     51  C   UNL     1       5.656   2.708   0.000  0.00  0.00    +0.000 C 
BRANCH  49  53
ATOM     52  O   UNL     1       2.799   2.719   0.000  0.00  0.00    +0.000 OA
ATOM     53  C   UNL     1       3.511   2.304   0.000  0.00  0.00    +0.000 C 
ENDBRANCH  49  53
BRANCH  47  54
ATOM     54  O   UNL     1       3.518   3.954   0.000  0.00  0.00    +0.000 OA
BRANCH  54  59
ATOM     55  O   UNL     1       4.237   5.188   0.000  0.00  0.00    +0.000 OA
ATOM     56  O   UNL     1       2.092   4.784   0.000  0.00  0.00    +0.000 OA
ATOM     57  O   UNL     1       2.098   6.434   0.000  0.00  0.00    +0.000 OA
ATOM     58  O   UNL     1       3.530   7.254   0.000  0.00  0.00    +0.000 OA
ATOM     59  C   UNL     1       3.521   4.779   0.000  0.00  0.00    +0.000 C 
ATOM     60  C   UNL     1       2.808   5.194   0.000  0.00  0.00    +0.000 C 
ATOM     61  C   UNL     1       2.811   6.019   0.000  0.00  0.00    +0.000 C 
ATOM     62  C   UNL     1       3.527   6.429   0.000  0.00  0.00    +0.000 C 
ATOM     63  C   UNL     1       4.240   6.013   0.000  0.00  0.00    +0.000 C 
BRANCH  63  65
ATOM     64  O   UNL     1       5.669   6.008   0.000  0.00  0.00    +0.000 OA
ATOM     65  C   UNL     1       4.956   6.423   0.000  0.00  0.00    +0.000 C 
ENDBRANCH  63  65
ENDBRANCH  54  59
ENDBRANCH  47  54
ENDBRANCH  43  51
ENDBRANCH   5  43
TORSDOF 13
