REMARK  Name = 131836071
REMARK  10 active torsions:
REMARK  status: ('A' for Active; 'I' for Inactive)
REMARK    1  A    between atoms: O_2  and  C_17
REMARK    2  A    between atoms: O_2  and  C_19
REMARK    3  A    between atoms: C_18  and  C_23
REMARK    4  A    between atoms: C_22  and  C_31
REMARK    5  A    between atoms: C_30  and  C_34
REMARK    6  A    between atoms: C_33  and  C_35
REMARK    7  A    between atoms: C_34  and  C_36
REMARK    8  A    between atoms: C_37  and  C_40
REMARK    9  A    between atoms: C_40  and  C_41
REMARK   10  A    between atoms: C_41  and  C_46
REMARK                            x       y       z     vdW  Elec       q    Type
REMARK                         _______ _______ _______ _____ _____    ______ ____
ROOT
ATOM      1  O   UNL     1       4.213   2.248   0.000  0.00  0.00    +0.000 OA
ATOM      2  O   UNL     1       7.117   2.248   0.000  0.00  0.00    +0.000 OA
ATOM      3  O   UNL     1       7.108  -0.284   0.000  0.00  0.00    +0.000 OA
ATOM      4  C   UNL     1       5.665   0.569   0.000  0.00  0.00    +0.000 A 
ATOM      5  C   UNL     1       4.951   0.982   0.000  0.00  0.00    +0.000 A 
ATOM      6  C   UNL     1       6.380   0.982   0.000  0.00  0.00    +0.000 A 
ATOM      7  C   UNL     1       3.466   1.824   0.000  0.00  0.00    +0.000 C 
ATOM      8  C   UNL     1       4.951   1.807   0.000  0.00  0.00    +0.000 A 
ATOM      9  C   UNL     1       6.380   1.807   0.000  0.00  0.00    +0.000 A 
ATOM     10  C   UNL     1       4.213   0.541   0.000  0.00  0.00    +0.000 C 
ATOM     11  C   UNL     1       3.466   0.965   0.000  0.00  0.00    +0.000 C 
ATOM     12  C   UNL     1       5.665   2.219   0.000  0.00  0.00    +0.000 A 
ATOM     13  C   UNL     1       7.117   0.541   0.000  0.00  0.00    +0.000 A 
ATOM     14  C   UNL     1       7.865   0.965   0.000  0.00  0.00    +0.000 A 
ATOM     15  C   UNL     1       2.641   1.827   0.000  0.00  0.00    +0.000 C 
ATOM     16  C   UNL     1       7.865   1.824   0.000  0.00  0.00    +0.000 A 
ENDROOT
BRANCH  16  19
ATOM     17  O   UNL     1       9.297   1.004   0.000  0.00  0.00    +0.000 OA
ATOM     18  O   UNL     1      10.716   3.485   0.000  0.00  0.00    +0.000 OA
ATOM     19  C   UNL     1       8.578   2.239   0.000  0.00  0.00    +0.000 A 
ATOM     20  C   UNL     1       9.294   1.829   0.000  0.00  0.00    +0.000 A 
ATOM     21  C   UNL     1       8.574   3.064   0.000  0.00  0.00    +0.000 A 
ATOM     22  C   UNL     1      10.007   2.245   0.000  0.00  0.00    +0.000 A 
ATOM     23  C   UNL     1       9.287   3.479   0.000  0.00  0.00    +0.000 A 
ATOM     24  C   UNL     1      10.003   3.070   0.000  0.00  0.00    +0.000 A 
ENDBRANCH  16  19
BRANCH   7  26
ATOM     25  O   UNL     1       3.471   3.253   0.000  0.00  0.00    +0.000 OA
ATOM     26  C   UNL     1       3.056   2.540   0.000  0.00  0.00    +0.000 C 
ENDBRANCH   7  26
BRANCH   4  27
ATOM     27  O   UNL     1       5.665  -0.256   0.000  0.00  0.00    +0.000 OA
BRANCH  27  35
ATOM     28  O   UNL     1       4.236  -0.256   0.000  0.00  0.00    +0.000 OA
ATOM     29  O   UNL     1       4.236  -2.731   0.000  0.00  0.00    +0.000 OA
ATOM     30  O   UNL     1       5.665  -1.906   0.000  0.00  0.00    +0.000 OA
ATOM     31  O   UNL     1       2.808  -1.906   0.000  0.00  0.00    +0.000 OA
ATOM     32  C   UNL     1       4.236  -1.906   0.000  0.00  0.00    +0.000 C 
ATOM     33  C   UNL     1       4.951  -1.493   0.000  0.00  0.00    +0.000 C 
ATOM     34  C   UNL     1       3.522  -1.493   0.000  0.00  0.00    +0.000 C 
ATOM     35  C   UNL     1       4.951  -0.668   0.000  0.00  0.00    +0.000 C 
ATOM     36  C   UNL     1       3.522  -0.668   0.000  0.00  0.00    +0.000 C 
BRANCH  36  39
ATOM     37  O   UNL     1       2.093  -0.668   0.000  0.00  0.00    +0.000 OA
ATOM     38  O   UNL     1       2.808   0.569   0.000  0.00  0.00    +0.000 OA
ATOM     39  C   UNL     1       2.808  -0.256   0.000  0.00  0.00    +0.000 C 
ENDBRANCH  36  39
ENDBRANCH  27  35
ENDBRANCH   4  27
BRANCH  14  40
ATOM     40  C   UNL     1       8.578   0.549   0.000  0.00  0.00    +0.000 C 
BRANCH  40  41
ATOM     41  C   UNL     1       8.574  -0.276   0.000  0.00  0.00    +0.000 C 
ATOM     42  C   UNL     1       9.287  -0.691   0.000  0.00  0.00    +0.000 C 
ATOM     43  C   UNL     1      10.003  -0.281   0.000  0.00  0.00    +0.000 C 
BRANCH  42  44
ATOM     44  C   UNL     1       9.284  -1.516   0.000  0.00  0.00    +0.000 C 
BRANCH  44  45
ATOM     45  C   UNL     1       9.997  -1.931   0.000  0.00  0.00    +0.000 C 
BRANCH  45  46
ATOM     46  C   UNL     1       9.994  -2.756   0.000  0.00  0.00    +0.000 C 
ATOM     47  C   UNL     1      10.707  -3.171   0.000  0.00  0.00    +0.000 C 
ATOM     48  C   UNL     1      10.704  -3.996   0.000  0.00  0.00    +0.000 C 
ATOM     49  C   UNL     1      11.423  -2.762   0.000  0.00  0.00    +0.000 C 
ENDBRANCH  45  46
ENDBRANCH  44  45
ENDBRANCH  42  44
ENDBRANCH  40  41
ENDBRANCH  14  40
TORSDOF 10
