REMARK  Name = 44259845
REMARK  9 active torsions:
REMARK  status: ('A' for Active; 'I' for Inactive)
REMARK    1  A    between atoms: O_3  and  C_21
REMARK    2  A    between atoms: O_3  and  C_23
REMARK    3  A    between atoms: O_6  and  C_22
REMARK    4  A    between atoms: O_6  and  C_27
REMARK    5  A    between atoms: O_13  and  C_41
REMARK    6  A    between atoms: C_19  and  C_22
REMARK    7  A    between atoms: C_27  and  C_32
REMARK    8  A    between atoms: C_31  and  C_34
REMARK    9  A    between atoms: C_35  and  C_38
REMARK                            x       y       z     vdW  Elec       q    Type
REMARK                         _______ _______ _______ _____ _____    ______ ____
ROOT
ATOM      1  O   UNL     1      10.224  -1.542   0.000  0.00  0.00    +0.000 OA
ENDROOT
BRANCH   1   7
ATOM      2  O   UNL     1      11.672   0.984   0.000  0.00  0.00    +0.000 OA
ATOM      3  O   UNL     1       8.764  -0.692   0.000  0.00  0.00    +0.000 OA
ATOM      4  O   UNL     1       8.783   0.998   0.000  0.00  0.00    +0.000 OA
ATOM      5  O   UNL     1       9.534   2.230   0.000  0.00  0.00    +0.000 OA
ATOM      6  O   UNL     1      10.966   3.049   0.000  0.00  0.00    +0.000 OA
ATOM      7  C   UNL     1      10.224  -0.717   0.000  0.00  0.00    +0.000 A 
ATOM      8  C   UNL     1       9.481  -0.285   0.000  0.00  0.00    +0.000 A 
ATOM      9  C   UNL     1      10.966  -0.285   0.000  0.00  0.00    +0.000 A 
ATOM     10  C   UNL     1      10.956   0.574   0.000  0.00  0.00    +0.000 A 
ATOM     11  C   UNL     1      10.243   0.990   0.000  0.00  0.00    +0.000 A 
ATOM     12  C   UNL     1       9.491   0.574   0.000  0.00  0.00    +0.000 A 
ATOM     13  C   UNL     1      10.247   1.815   0.000  0.00  0.00    +0.000 A 
ATOM     14  C   UNL     1      11.675   1.809   0.000  0.00  0.00    +0.000 A 
ATOM     15  C   UNL     1      10.963   2.224   0.000  0.00  0.00    +0.000 A 
BRANCH  14  17
ATOM     16  O   UNL     1      14.533   1.798   0.000  0.00  0.00    +0.000 OA
ATOM     17  C   UNL     1      12.392   2.219   0.000  0.00  0.00    +0.000 A 
ATOM     18  C   UNL     1      13.104   1.804   0.000  0.00  0.00    +0.000 A 
ATOM     19  C   UNL     1      12.395   3.044   0.000  0.00  0.00    +0.000 A 
ATOM     20  C   UNL     1      13.820   2.213   0.000  0.00  0.00    +0.000 A 
ATOM     21  C   UNL     1      13.111   3.454   0.000  0.00  0.00    +0.000 A 
ATOM     22  C   UNL     1      13.824   3.038   0.000  0.00  0.00    +0.000 A 
BRANCH  22  23
ATOM     23  O   UNL     1      14.540   3.448   0.000  0.00  0.00    +0.000 OA
ATOM     24  C   UNL     1      14.543   4.273   0.000  0.00  0.00    +0.000 C 
ENDBRANCH  22  23
ENDBRANCH  14  17
ENDBRANCH   1   7
BRANCH   1  33
ATOM     25  O   UNL     1       8.795  -1.542   0.000  0.00  0.00    +0.000 OA
ATOM     26  O   UNL     1       7.366  -3.192   0.000  0.00  0.00    +0.000 OA
ATOM     27  O   UNL     1       8.795  -4.017   0.000  0.00  0.00    +0.000 OA
ATOM     28  O   UNL     1      10.224  -3.192   0.000  0.00  0.00    +0.000 OA
ATOM     29  C   UNL     1       8.080  -2.780   0.000  0.00  0.00    +0.000 C 
ATOM     30  C   UNL     1       8.795  -3.192   0.000  0.00  0.00    +0.000 C 
ATOM     31  C   UNL     1       8.080  -1.955   0.000  0.00  0.00    +0.000 C 
ATOM     32  C   UNL     1       9.509  -2.780   0.000  0.00  0.00    +0.000 C 
ATOM     33  C   UNL     1       9.509  -1.955   0.000  0.00  0.00    +0.000 C 
BRANCH  31  34
ATOM     34  C   UNL     1       7.366  -1.542   0.000  0.00  0.00    +0.000 C 
BRANCH  34  35
ATOM     35  O   UNL     1       6.651  -1.955   0.000  0.00  0.00    +0.000 OA
BRANCH  35  37
ATOM     36  O   UNL     1       5.937  -0.717   0.000  0.00  0.00    +0.000 OA
ATOM     37  C   UNL     1       5.937  -1.542   0.000  0.00  0.00    +0.000 C 
BRANCH  37  38
ATOM     38  C   UNL     1       5.222  -1.955   0.000  0.00  0.00    +0.000 C 
ATOM     39  C   UNL     1       4.508  -1.542   0.000  0.00  0.00    +0.000 C 
BRANCH  39  42
ATOM     40  O   UNL     1       1.650  -1.542   0.000  0.00  0.00    +0.000 OA
ATOM     41  O   UNL     1       1.650  -3.192   0.000  0.00  0.00    +0.000 OA
ATOM     42  C   UNL     1       3.793  -1.955   0.000  0.00  0.00    +0.000 A 
ATOM     43  C   UNL     1       3.079  -1.542   0.000  0.00  0.00    +0.000 A 
ATOM     44  C   UNL     1       3.793  -2.780   0.000  0.00  0.00    +0.000 A 
ATOM     45  C   UNL     1       2.364  -1.955   0.000  0.00  0.00    +0.000 A 
ATOM     46  C   UNL     1       3.079  -3.192   0.000  0.00  0.00    +0.000 A 
ATOM     47  C   UNL     1       2.364  -2.780   0.000  0.00  0.00    +0.000 A 
ENDBRANCH  39  42
ENDBRANCH  37  38
ENDBRANCH  35  37
ENDBRANCH  34  35
ENDBRANCH  31  34
ENDBRANCH   1  33
TORSDOF 9
