REMARK  Name = 131831708
REMARK  10 active torsions:
REMARK  status: ('A' for Active; 'I' for Inactive)
REMARK    1  A    between atoms: O_1  and  C_19
REMARK    2  A    between atoms: O_1  and  C_21
REMARK    3  A    between atoms: O_5  and  C_25
REMARK    4  A    between atoms: O_5  and  C_31
REMARK    5  A    between atoms: O_10  and  C_30
REMARK    6  A    between atoms: O_10  and  C_34
REMARK    7  A    between atoms: C_27  and  C_29
REMARK    8  A    between atoms: C_28  and  C_30
REMARK    9  A    between atoms: C_32  and  C_36
REMARK   10  A    between atoms: C_34  and  C_38
REMARK                            x       y       z     vdW  Elec       q    Type
REMARK                         _______ _______ _______ _____ _____    ______ ____
ROOT
ATOM      1  O   UNL     1       4.236   2.162   0.000  0.00  0.00    +0.000 OA
ATOM      2  O   UNL     1       4.236  -0.313   0.000  0.00  0.00    +0.000 OA
ATOM      3  O   UNL     1       2.808   0.512   0.000  0.00  0.00    +0.000 OA
ATOM      4  C   UNL     1       4.951   0.924   0.000  0.00  0.00    +0.000 C 
ATOM      5  C   UNL     1       4.236   0.512   0.000  0.00  0.00    +0.000 C 
ATOM      6  C   UNL     1       3.522   0.924   0.000  0.00  0.00    +0.000 C 
ATOM      7  C   UNL     1       4.951   1.749   0.000  0.00  0.00    +0.000 C 
ATOM      8  C   UNL     1       3.522   1.749   0.000  0.00  0.00    +0.000 C 
ENDROOT
BRANCH   8  10
ATOM      9  O   UNL     1       2.093   1.749   0.000  0.00  0.00    +0.000 OA
ATOM     10  C   UNL     1       2.808   2.162   0.000  0.00  0.00    +0.000 C 
ENDBRANCH   8  10
BRANCH   4  11
ATOM     11  O   UNL     1       5.665   0.512   0.000  0.00  0.00    +0.000 OA
BRANCH  11  16
ATOM     12  O   UNL     1       4.951  -0.726   0.000  0.00  0.00    +0.000 OA
ATOM     13  O   UNL     1       7.094  -0.313   0.000  0.00  0.00    +0.000 OA
ATOM     14  O   UNL     1       7.094  -1.963   0.000  0.00  0.00    +0.000 OA
ATOM     15  O   UNL     1       5.665  -2.788   0.000  0.00  0.00    +0.000 OA
ATOM     16  C   UNL     1       5.665  -0.313   0.000  0.00  0.00    +0.000 C 
ATOM     17  C   UNL     1       6.380  -0.726   0.000  0.00  0.00    +0.000 C 
ATOM     18  C   UNL     1       6.380  -1.551   0.000  0.00  0.00    +0.000 C 
ATOM     19  C   UNL     1       5.665  -1.963   0.000  0.00  0.00    +0.000 C 
ATOM     20  C   UNL     1       4.951  -1.551   0.000  0.00  0.00    +0.000 C 
BRANCH  20  21
ATOM     21  C   UNL     1       4.236  -1.963   0.000  0.00  0.00    +0.000 C 
BRANCH  21  22
ATOM     22  O   UNL     1       4.236  -2.788   0.000  0.00  0.00    +0.000 OA
BRANCH  22  24
ATOM     23  O   UNL     1       2.808  -2.788   0.000  0.00  0.00    +0.000 OA
ATOM     24  C   UNL     1       3.522  -3.201   0.000  0.00  0.00    +0.000 C 
BRANCH  24  26
ATOM     25  O   UNL     1       3.522  -6.501   0.000  0.00  0.00    +0.000 OA
ATOM     26  C   UNL     1       3.522  -4.026   0.000  0.00  0.00    +0.000 A 
ATOM     27  C   UNL     1       4.236  -4.438   0.000  0.00  0.00    +0.000 A 
ATOM     28  C   UNL     1       2.808  -4.438   0.000  0.00  0.00    +0.000 A 
ATOM     29  C   UNL     1       4.236  -5.263   0.000  0.00  0.00    +0.000 A 
ATOM     30  C   UNL     1       2.808  -5.263   0.000  0.00  0.00    +0.000 A 
ATOM     31  C   UNL     1       3.522  -5.676   0.000  0.00  0.00    +0.000 A 
ENDBRANCH  24  26
ENDBRANCH  22  24
ENDBRANCH  21  22
ENDBRANCH  20  21
ENDBRANCH  11  16
ENDBRANCH   4  11
BRANCH   7  32
ATOM     32  O   UNL     1       5.665   2.162   0.000  0.00  0.00    +0.000 OA
BRANCH  32  36
ATOM     33  O   UNL     1       6.380   4.224   0.000  0.00  0.00    +0.000 OA
ATOM     34  O   UNL     1       3.490   4.222   0.000  0.00  0.00    +0.000 OA
ATOM     35  O   UNL     1       4.941   6.756   0.000  0.00  0.00    +0.000 OA
ATOM     36  C   UNL     1       5.665   2.987   0.000  0.00  0.00    +0.000 A 
ATOM     37  C   UNL     1       6.380   3.399   0.000  0.00  0.00    +0.000 A 
ATOM     38  C   UNL     1       4.951   3.399   0.000  0.00  0.00    +0.000 A 
ATOM     39  C   UNL     1       4.951   4.224   0.000  0.00  0.00    +0.000 A 
ATOM     40  C   UNL     1       5.665   4.637   0.000  0.00  0.00    +0.000 A 
ATOM     41  C   UNL     1       4.200   4.642   0.000  0.00  0.00    +0.000 A 
ATOM     42  C   UNL     1       5.679   5.496   0.000  0.00  0.00    +0.000 A 
ATOM     43  C   UNL     1       4.194   5.502   0.000  0.00  0.00    +0.000 A 
ATOM     44  C   UNL     1       4.938   5.931   0.000  0.00  0.00    +0.000 A 
BRANCH  37  47
ATOM     45  O   UNL     1       9.238   3.399   0.000  0.00  0.00    +0.000 OA
ATOM     46  O   UNL     1       9.238   1.749   0.000  0.00  0.00    +0.000 OA
ATOM     47  C   UNL     1       7.094   2.987   0.000  0.00  0.00    +0.000 A 
ATOM     48  C   UNL     1       7.809   3.399   0.000  0.00  0.00    +0.000 A 
ATOM     49  C   UNL     1       7.094   2.162   0.000  0.00  0.00    +0.000 A 
ATOM     50  C   UNL     1       8.523   2.987   0.000  0.00  0.00    +0.000 A 
ATOM     51  C   UNL     1       7.809   1.749   0.000  0.00  0.00    +0.000 A 
ATOM     52  C   UNL     1       8.523   2.162   0.000  0.00  0.00    +0.000 A 
ENDBRANCH  37  47
ENDBRANCH  32  36
ENDBRANCH   7  32
TORSDOF 10
