REMARK  Name = 74977927
REMARK  10 active torsions:
REMARK  status: ('A' for Active; 'I' for Inactive)
REMARK    1  A    between atoms: O_1  and  C_19
REMARK    2  A    between atoms: O_1  and  C_21
REMARK    3  A    between atoms: O_5  and  C_25
REMARK    4  A    between atoms: O_5  and  C_31
REMARK    5  A    between atoms: O_10  and  C_30
REMARK    6  A    between atoms: O_10  and  C_34
REMARK    7  A    between atoms: O_18  and  C_47
REMARK    8  A    between atoms: C_26  and  C_29
REMARK    9  A    between atoms: C_28  and  C_30
REMARK   10  A    between atoms: C_40  and  C_42
REMARK                            x       y       z     vdW  Elec       q    Type
REMARK                         _______ _______ _______ _____ _____    ______ ____
ROOT
ATOM      1  O   UNL     1       4.236   0.192   0.000  0.00  0.00    +0.000 OA
ATOM      2  O   UNL     1       4.236  -2.283   0.000  0.00  0.00    +0.000 OA
ATOM      3  O   UNL     1       2.808  -1.458   0.000  0.00  0.00    +0.000 OA
ATOM      4  C   UNL     1       4.951  -1.046   0.000  0.00  0.00    +0.000 C 
ATOM      5  C   UNL     1       4.236  -1.458   0.000  0.00  0.00    +0.000 C 
ATOM      6  C   UNL     1       3.522  -1.046   0.000  0.00  0.00    +0.000 C 
ATOM      7  C   UNL     1       4.951  -0.221   0.000  0.00  0.00    +0.000 C 
ATOM      8  C   UNL     1       3.522  -0.221   0.000  0.00  0.00    +0.000 C 
ENDROOT
BRANCH   8  10
ATOM      9  O   UNL     1       2.093  -0.221   0.000  0.00  0.00    +0.000 OA
ATOM     10  C   UNL     1       2.808   0.192   0.000  0.00  0.00    +0.000 C 
ENDBRANCH   8  10
BRANCH   4  11
ATOM     11  O   UNL     1       5.665  -1.458   0.000  0.00  0.00    +0.000 OA
BRANCH  11  16
ATOM     12  O   UNL     1       4.951  -2.696   0.000  0.00  0.00    +0.000 OA
ATOM     13  O   UNL     1       7.094  -2.283   0.000  0.00  0.00    +0.000 OA
ATOM     14  O   UNL     1       7.094  -3.933   0.000  0.00  0.00    +0.000 OA
ATOM     15  O   UNL     1       5.665  -4.758   0.000  0.00  0.00    +0.000 OA
ATOM     16  C   UNL     1       5.665  -2.283   0.000  0.00  0.00    +0.000 C 
ATOM     17  C   UNL     1       6.380  -2.696   0.000  0.00  0.00    +0.000 C 
ATOM     18  C   UNL     1       6.380  -3.521   0.000  0.00  0.00    +0.000 C 
ATOM     19  C   UNL     1       5.665  -3.933   0.000  0.00  0.00    +0.000 C 
ATOM     20  C   UNL     1       4.951  -3.521   0.000  0.00  0.00    +0.000 C 
BRANCH  20  21
ATOM     21  C   UNL     1       4.236  -3.933   0.000  0.00  0.00    +0.000 C 
BRANCH  21  22
ATOM     22  O   UNL     1       4.236  -4.758   0.000  0.00  0.00    +0.000 OA
BRANCH  22  24
ATOM     23  O   UNL     1       2.808  -4.758   0.000  0.00  0.00    +0.000 OA
ATOM     24  C   UNL     1       3.522  -5.171   0.000  0.00  0.00    +0.000 C 
ATOM     25  C   UNL     1       3.522  -5.996   0.000  0.00  0.00    +0.000 C 
ENDBRANCH  22  24
ENDBRANCH  21  22
ENDBRANCH  20  21
ENDBRANCH  11  16
ENDBRANCH   4  11
BRANCH   7  26
ATOM     26  O   UNL     1       5.665   0.192   0.000  0.00  0.00    +0.000 OA
BRANCH  26  31
ATOM     27  O   UNL     1       7.094   1.017   0.000  0.00  0.00    +0.000 OA
ATOM     28  O   UNL     1       7.131   2.672   0.000  0.00  0.00    +0.000 OA
ATOM     29  O   UNL     1       4.236   2.667   0.000  0.00  0.00    +0.000 OA
ATOM     30  O   UNL     1       4.933   3.930   0.000  0.00  0.00    +0.000 OA
ATOM     31  C   UNL     1       5.665   1.017   0.000  0.00  0.00    +0.000 A 
ATOM     32  C   UNL     1       6.380   1.429   0.000  0.00  0.00    +0.000 A 
ATOM     33  C   UNL     1       4.951   1.429   0.000  0.00  0.00    +0.000 A 
ATOM     34  C   UNL     1       6.380   2.254   0.000  0.00  0.00    +0.000 A 
ATOM     35  C   UNL     1       4.951   2.254   0.000  0.00  0.00    +0.000 A 
ATOM     36  C   UNL     1       5.665   2.667   0.000  0.00  0.00    +0.000 A 
ATOM     37  C   UNL     1       5.652   3.526   0.000  0.00  0.00    +0.000 A 
ATOM     38  C   UNL     1       7.137   3.532   0.000  0.00  0.00    +0.000 A 
ATOM     39  C   UNL     1       6.393   3.961   0.000  0.00  0.00    +0.000 A 
BRANCH  38  41
ATOM     40  O   UNL     1       9.995   3.521   0.000  0.00  0.00    +0.000 OA
ATOM     41  C   UNL     1       7.853   3.942   0.000  0.00  0.00    +0.000 A 
ATOM     42  C   UNL     1       8.566   3.526   0.000  0.00  0.00    +0.000 A 
ATOM     43  C   UNL     1       7.856   4.766   0.000  0.00  0.00    +0.000 A 
ATOM     44  C   UNL     1       9.282   3.936   0.000  0.00  0.00    +0.000 A 
ATOM     45  C   UNL     1       8.572   5.176   0.000  0.00  0.00    +0.000 A 
ATOM     46  C   UNL     1       9.285   4.761   0.000  0.00  0.00    +0.000 A 
BRANCH  46  47
ATOM     47  O   UNL     1      10.001   5.171   0.000  0.00  0.00    +0.000 OA
ATOM     48  C   UNL     1      10.005   5.996   0.000  0.00  0.00    +0.000 C 
ENDBRANCH  46  47
ENDBRANCH  38  41
ENDBRANCH  26  31
ENDBRANCH   7  26
TORSDOF 10
