REMARK  Name = 44257038
REMARK  5 active torsions:
REMARK  status: ('A' for Active; 'I' for Inactive)
REMARK    1  A    between atoms: O_2  and  C_17
REMARK    2  A    between atoms: O_2  and  C_19
REMARK    3  A    between atoms: C_16  and  C_18
REMARK    4  A    between atoms: C_22  and  C_26
REMARK    5  A    between atoms: C_28  and  C_33
REMARK                            x       y       z     vdW  Elec       q    Type
REMARK                         _______ _______ _______ _____ _____    ______ ____
ROOT
ATOM      1  O   UNL     1       7.538   0.389   0.000  0.00  0.00    +0.000 OA
ATOM      2  O   UNL     1       5.327   2.222   0.000  0.00  0.00    +0.000 OA
ATOM      3  O   UNL     1       8.064   3.254   0.000  0.00  0.00    +0.000 OA
ATOM      4  C   UNL     1       6.196  -0.099   0.000  0.00  0.00    +0.000 A 
ATOM      5  C   UNL     1       5.913   0.676   0.000  0.00  0.00    +0.000 A 
ATOM      6  C   UNL     1       6.444   1.308   0.000  0.00  0.00    +0.000 A 
ATOM      7  C   UNL     1       7.008  -0.242   0.000  0.00  0.00    +0.000 A 
ATOM      8  C   UNL     1       7.256   1.165   0.000  0.00  0.00    +0.000 A 
ATOM      9  C   UNL     1       6.137   2.111   0.000  0.00  0.00    +0.000 A 
ATOM     10  C   UNL     1       5.108   0.817   0.000  0.00  0.00    +0.000 A 
ATOM     11  C   UNL     1       7.819   1.814   0.000  0.00  0.00    +0.000 A 
ATOM     12  C   UNL     1       4.817   1.582   0.000  0.00  0.00    +0.000 A 
ATOM     13  C   UNL     1       6.685   2.773   0.000  0.00  0.00    +0.000 A 
ATOM     14  C   UNL     1       7.531   2.624   0.000  0.00  0.00    +0.000 A 
ENDROOT
BRANCH   7  16
ATOM     15  O   UNL     1       8.137  -3.344   0.000  0.00  0.00    +0.000 OA
ATOM     16  C   UNL     1       7.290  -1.018   0.000  0.00  0.00    +0.000 A 
ATOM     17  C   UNL     1       6.760  -1.650   0.000  0.00  0.00    +0.000 A 
ATOM     18  C   UNL     1       8.103  -1.161   0.000  0.00  0.00    +0.000 A 
ATOM     19  C   UNL     1       7.042  -2.425   0.000  0.00  0.00    +0.000 A 
ATOM     20  C   UNL     1       8.385  -1.936   0.000  0.00  0.00    +0.000 A 
ATOM     21  C   UNL     1       7.855  -2.568   0.000  0.00  0.00    +0.000 A 
ENDBRANCH   7  16
BRANCH  12  24
ATOM     22  O   UNL     1       3.705   2.479   0.000  0.00  0.00    +0.000 OA
ATOM     23  O   UNL     1       3.485   1.067   0.000  0.00  0.00    +0.000 OA
ATOM     24  C   UNL     1       4.002   1.709   0.000  0.00  0.00    +0.000 C 
ENDBRANCH  12  24
BRANCH   4  25
ATOM     25  O   UNL     1       5.665  -0.731   0.000  0.00  0.00    +0.000 OA
BRANCH  25  34
ATOM     26  O   UNL     1       4.236  -0.731   0.000  0.00  0.00    +0.000 OA
ATOM     27  O   UNL     1       4.236  -3.206   0.000  0.00  0.00    +0.000 OA
ATOM     28  O   UNL     1       2.808  -2.381   0.000  0.00  0.00    +0.000 OA
ATOM     29  O   UNL     1       5.665  -2.381   0.000  0.00  0.00    +0.000 OA
ATOM     30  C   UNL     1       4.236  -2.381   0.000  0.00  0.00    +0.000 C 
ATOM     31  C   UNL     1       3.522  -1.969   0.000  0.00  0.00    +0.000 C 
ATOM     32  C   UNL     1       4.951  -1.969   0.000  0.00  0.00    +0.000 C 
ATOM     33  C   UNL     1       3.522  -1.144   0.000  0.00  0.00    +0.000 C 
ATOM     34  C   UNL     1       4.951  -1.144   0.000  0.00  0.00    +0.000 C 
BRANCH  33  36
ATOM     35  O   UNL     1       2.093  -1.144   0.000  0.00  0.00    +0.000 OA
ATOM     36  C   UNL     1       2.808  -0.731   0.000  0.00  0.00    +0.000 C 
ENDBRANCH  33  36
ENDBRANCH  25  34
ENDBRANCH   4  25
TORSDOF 5
