REMARK  Name = 44260051
REMARK  11 active torsions:
REMARK  status: ('A' for Active; 'I' for Inactive)
REMARK    1  A    between atoms: O_1  and  C_19
REMARK    2  A    between atoms: O_1  and  C_22
REMARK    3  A    between atoms: O_6  and  C_27
REMARK    4  A    between atoms: O_6  and  C_31
REMARK    5  A    between atoms: O_12  and  C_32
REMARK    6  A    between atoms: O_13  and  C_33
REMARK    7  A    between atoms: O_16  and  C_39
REMARK    8  A    between atoms: O_18  and  C_48
REMARK    9  A    between atoms: C_23  and  C_29
REMARK   10  A    between atoms: C_28  and  C_30
REMARK   11  A    between atoms: C_38  and  C_42
REMARK                            x       y       z     vdW  Elec       q    Type
REMARK                         _______ _______ _______ _____ _____    ______ ____
ROOT
ATOM      1  O   UNL     1       8.559   2.182   0.000  0.00  0.00    +0.000 OA
ATOM      2  O   UNL     1       5.665   2.176   0.000  0.00  0.00    +0.000 OA
ATOM      3  O   UNL     1       6.362   3.439   0.000  0.00  0.00    +0.000 OA
ATOM      4  C   UNL     1       7.094   0.526   0.000  0.00  0.00    +0.000 A 
ATOM      5  C   UNL     1       7.809   0.938   0.000  0.00  0.00    +0.000 A 
ATOM      6  C   UNL     1       6.380   0.938   0.000  0.00  0.00    +0.000 A 
ATOM      7  C   UNL     1       7.809   1.763   0.000  0.00  0.00    +0.000 A 
ATOM      8  C   UNL     1       6.380   1.763   0.000  0.00  0.00    +0.000 A 
ATOM      9  C   UNL     1       7.094   2.176   0.000  0.00  0.00    +0.000 A 
ATOM     10  C   UNL     1       7.081   3.035   0.000  0.00  0.00    +0.000 A 
ATOM     11  C   UNL     1       8.566   3.041   0.000  0.00  0.00    +0.000 A 
ATOM     12  C   UNL     1       7.822   3.470   0.000  0.00  0.00    +0.000 A 
ENDROOT
BRANCH  11  13
ATOM     13  C   UNL     1       9.282   3.451   0.000  0.00  0.00    +0.000 A 
ATOM     14  C   UNL     1       9.285   4.276   0.000  0.00  0.00    +0.000 A 
ATOM     15  C   UNL     1       9.995   3.035   0.000  0.00  0.00    +0.000 A 
ATOM     16  C   UNL     1      10.001   4.685   0.000  0.00  0.00    +0.000 A 
ATOM     17  C   UNL     1      10.711   3.445   0.000  0.00  0.00    +0.000 A 
ATOM     18  C   UNL     1      10.714   4.270   0.000  0.00  0.00    +0.000 A 
BRANCH  18  19
ATOM     19  O   UNL     1      11.430   4.680   0.000  0.00  0.00    +0.000 OA
ATOM     20  C   UNL     1      11.434   5.505   0.000  0.00  0.00    +0.000 C 
ENDBRANCH  18  19
ENDBRANCH  11  13
BRANCH   5  21
ATOM     21  O   UNL     1       8.523   0.526   0.000  0.00  0.00    +0.000 OA
ATOM     22  C   UNL     1       9.238   0.938   0.000  0.00  0.00    +0.000 C 
ENDBRANCH   5  21
BRANCH   6  23
ATOM     23  O   UNL     1       5.665   0.526   0.000  0.00  0.00    +0.000 OA
ATOM     24  C   UNL     1       4.951   0.938   0.000  0.00  0.00    +0.000 C 
ENDBRANCH   6  23
BRANCH  12  25
ATOM     25  O   UNL     1       7.819   4.295   0.000  0.00  0.00    +0.000 OA
ATOM     26  C   UNL     1       7.103   4.705   0.000  0.00  0.00    +0.000 C 
ENDBRANCH  12  25
BRANCH   4  27
ATOM     27  O   UNL     1       7.094  -0.299   0.000  0.00  0.00    +0.000 OA
BRANCH  27  35
ATOM     28  O   UNL     1       5.665  -0.299   0.000  0.00  0.00    +0.000 OA
ATOM     29  O   UNL     1       4.236  -1.949   0.000  0.00  0.00    +0.000 OA
ATOM     30  O   UNL     1       7.094  -1.949   0.000  0.00  0.00    +0.000 OA
ATOM     31  C   UNL     1       5.665  -1.949   0.000  0.00  0.00    +0.000 C 
ATOM     32  C   UNL     1       4.951  -1.537   0.000  0.00  0.00    +0.000 C 
ATOM     33  C   UNL     1       6.380  -1.537   0.000  0.00  0.00    +0.000 C 
ATOM     34  C   UNL     1       4.951  -0.712   0.000  0.00  0.00    +0.000 C 
ATOM     35  C   UNL     1       6.380  -0.712   0.000  0.00  0.00    +0.000 C 
BRANCH  34  37
ATOM     36  O   UNL     1       4.236   0.526   0.000  0.00  0.00    +0.000 OA
ATOM     37  C   UNL     1       4.236  -0.299   0.000  0.00  0.00    +0.000 C 
ENDBRANCH  34  37
BRANCH  31  38
ATOM     38  O   UNL     1       5.665  -2.774   0.000  0.00  0.00    +0.000 OA
BRANCH  38  43
ATOM     39  O   UNL     1       4.236  -2.774   0.000  0.00  0.00    +0.000 OA
ATOM     40  O   UNL     1       5.665  -4.424   0.000  0.00  0.00    +0.000 OA
ATOM     41  O   UNL     1       4.236  -5.249   0.000  0.00  0.00    +0.000 OA
ATOM     42  O   UNL     1       2.808  -4.424   0.000  0.00  0.00    +0.000 OA
ATOM     43  C   UNL     1       4.951  -3.187   0.000  0.00  0.00    +0.000 C 
ATOM     44  C   UNL     1       4.951  -4.012   0.000  0.00  0.00    +0.000 C 
ATOM     45  C   UNL     1       4.236  -4.424   0.000  0.00  0.00    +0.000 C 
ATOM     46  C   UNL     1       3.522  -4.012   0.000  0.00  0.00    +0.000 C 
ATOM     47  C   UNL     1       3.522  -3.187   0.000  0.00  0.00    +0.000 C 
BRANCH  47  49
ATOM     48  O   UNL     1       2.093  -3.187   0.000  0.00  0.00    +0.000 OA
ATOM     49  C   UNL     1       2.808  -2.774   0.000  0.00  0.00    +0.000 C 
ENDBRANCH  47  49
ENDBRANCH  38  43
ENDBRANCH  31  38
ENDBRANCH  27  35
ENDBRANCH   4  27
TORSDOF 11
