REMARK  Name = 131752841
REMARK  7 active torsions:
REMARK  status: ('A' for Active; 'I' for Inactive)
REMARK    1  A    between atoms: O_2  and  C_16
REMARK    2  A    between atoms: O_2  and  C_18
REMARK    3  A    between atoms: O_8  and  C_19
REMARK    4  A    between atoms: O_9  and  C_22
REMARK    5  A    between atoms: O_11  and  C_34
REMARK    6  A    between atoms: C_15  and  C_17
REMARK    7  A    between atoms: C_25  and  C_27
REMARK                            x       y       z     vdW  Elec       q    Type
REMARK                         _______ _______ _______ _____ _____    ______ ____
ROOT
ATOM      1  O   UNL     1       7.131   0.944   0.000  0.00  0.00    +0.000 OA
ATOM      2  O   UNL     1       4.933   2.202   0.000  0.00  0.00    +0.000 OA
ATOM      3  C   UNL     1       5.665  -0.712   0.000  0.00  0.00    +0.000 A 
ATOM      4  C   UNL     1       4.951  -0.299   0.000  0.00  0.00    +0.000 A 
ATOM      5  C   UNL     1       6.380  -0.299   0.000  0.00  0.00    +0.000 A 
ATOM      6  C   UNL     1       6.380   0.526   0.000  0.00  0.00    +0.000 A 
ATOM      7  C   UNL     1       4.951   0.526   0.000  0.00  0.00    +0.000 A 
ATOM      8  C   UNL     1       5.665   0.938   0.000  0.00  0.00    +0.000 A 
ATOM      9  C   UNL     1       5.652   1.798   0.000  0.00  0.00    +0.000 A 
ATOM     10  C   UNL     1       7.137   1.803   0.000  0.00  0.00    +0.000 A 
ATOM     11  C   UNL     1       6.393   2.233   0.000  0.00  0.00    +0.000 A 
ENDROOT
BRANCH  10  12
ATOM     12  C   UNL     1       7.853   2.213   0.000  0.00  0.00    +0.000 A 
ATOM     13  C   UNL     1       7.856   3.038   0.000  0.00  0.00    +0.000 A 
ATOM     14  C   UNL     1       8.566   1.798   0.000  0.00  0.00    +0.000 A 
ATOM     15  C   UNL     1       8.572   3.448   0.000  0.00  0.00    +0.000 A 
ATOM     16  C   UNL     1       9.282   2.208   0.000  0.00  0.00    +0.000 A 
ATOM     17  C   UNL     1       9.285   3.033   0.000  0.00  0.00    +0.000 A 
BRANCH  17  18
ATOM     18  O   UNL     1      10.001   3.442   0.000  0.00  0.00    +0.000 OA
ATOM     19  C   UNL     1      10.005   4.267   0.000  0.00  0.00    +0.000 C 
ENDBRANCH  17  18
ENDBRANCH  10  12
BRANCH   4  20
ATOM     20  O   UNL     1       4.236  -0.712   0.000  0.00  0.00    +0.000 OA
ATOM     21  C   UNL     1       3.522  -0.299   0.000  0.00  0.00    +0.000 C 
ENDBRANCH   4  20
BRANCH   7  22
ATOM     22  O   UNL     1       4.236   0.938   0.000  0.00  0.00    +0.000 OA
ATOM     23  C   UNL     1       3.522   0.526   0.000  0.00  0.00    +0.000 C 
ENDBRANCH   7  22
BRANCH   3  24
ATOM     24  O   UNL     1       5.665  -1.537   0.000  0.00  0.00    +0.000 OA
BRANCH  24  33
ATOM     25  O   UNL     1       4.236  -1.537   0.000  0.00  0.00    +0.000 OA
ATOM     26  O   UNL     1       4.236  -4.012   0.000  0.00  0.00    +0.000 OA
ATOM     27  O   UNL     1       2.808  -3.187   0.000  0.00  0.00    +0.000 OA
ATOM     28  O   UNL     1       5.665  -3.187   0.000  0.00  0.00    +0.000 OA
ATOM     29  C   UNL     1       4.236  -3.187   0.000  0.00  0.00    +0.000 C 
ATOM     30  C   UNL     1       3.522  -2.774   0.000  0.00  0.00    +0.000 C 
ATOM     31  C   UNL     1       4.951  -2.774   0.000  0.00  0.00    +0.000 C 
ATOM     32  C   UNL     1       3.522  -1.949   0.000  0.00  0.00    +0.000 C 
ATOM     33  C   UNL     1       4.951  -1.949   0.000  0.00  0.00    +0.000 C 
BRANCH  32  35
ATOM     34  O   UNL     1       2.093  -1.949   0.000  0.00  0.00    +0.000 OA
ATOM     35  C   UNL     1       2.808  -1.537   0.000  0.00  0.00    +0.000 C 
ENDBRANCH  32  35
ENDBRANCH  24  33
ENDBRANCH   3  24
TORSDOF 7
