REMARK  Name = 44258872
REMARK  13 active torsions:
REMARK  status: ('A' for Active; 'I' for Inactive)
REMARK    1  A    between atoms: O_2  and  C_22
REMARK    2  A    between atoms: O_2  and  C_27
REMARK    3  A    between atoms: O_4  and  C_19
REMARK    4  A    between atoms: O_4  and  C_30
REMARK    5  A    between atoms: O_5  and  C_20
REMARK    6  A    between atoms: O_5  and  C_31
REMARK    7  A    between atoms: O_8  and  C_28
REMARK    8  A    between atoms: O_8  and  C_32
REMARK    9  A    between atoms: O_10  and  C_29
REMARK   10  A    between atoms: O_10  and  C_35
REMARK   11  A    between atoms: C_21  and  C_27
REMARK   12  A    between atoms: C_23  and  C_29
REMARK   13  A    between atoms: C_33  and  C_39
REMARK                            x       y       z     vdW  Elec       q    Type
REMARK                         _______ _______ _______ _____ _____    ______ ____
ROOT
ATOM      1  O   UNL     1       8.275  -1.061   0.000  0.00  0.00    +0.000 OA
ATOM      2  O   UNL     1       6.846  -2.711   0.000  0.00  0.00    +0.000 OA
ATOM      3  O   UNL     1       8.275  -3.536   0.000  0.00  0.00    +0.000 OA
ATOM      4  O   UNL     1       9.704  -2.711   0.000  0.00  0.00    +0.000 OA
ATOM      5  C   UNL     1       7.561  -1.473   0.000  0.00  0.00    +0.000 C 
ATOM      6  C   UNL     1       7.561  -2.298   0.000  0.00  0.00    +0.000 C 
ATOM      7  C   UNL     1       8.275  -2.711   0.000  0.00  0.00    +0.000 C 
ATOM      8  C   UNL     1       8.989  -2.298   0.000  0.00  0.00    +0.000 C 
ATOM      9  C   UNL     1       8.989  -1.473   0.000  0.00  0.00    +0.000 C 
ENDROOT
BRANCH   9  10
ATOM     10  O   UNL     1       9.704  -1.061   0.000  0.00  0.00    +0.000 OA
BRANCH  10  15
ATOM     11  O   UNL     1      10.418   1.002   0.000  0.00  0.00    +0.000 OA
ATOM     12  O   UNL     1       8.275  -0.236   0.000  0.00  0.00    +0.000 OA
ATOM     13  O   UNL     1       7.529   0.999   0.000  0.00  0.00    +0.000 OA
ATOM     14  O   UNL     1       8.979   3.534   0.000  0.00  0.00    +0.000 OA
ATOM     15  C   UNL     1       9.704  -0.236   0.000  0.00  0.00    +0.000 A 
ATOM     16  C   UNL     1      10.418   0.177   0.000  0.00  0.00    +0.000 A 
ATOM     17  C   UNL     1       8.989   0.177   0.000  0.00  0.00    +0.000 A 
ATOM     18  C   UNL     1       8.989   1.002   0.000  0.00  0.00    +0.000 A 
ATOM     19  C   UNL     1       9.704   1.414   0.000  0.00  0.00    +0.000 A 
ATOM     20  C   UNL     1       8.239   1.420   0.000  0.00  0.00    +0.000 A 
ATOM     21  C   UNL     1       9.717   2.273   0.000  0.00  0.00    +0.000 A 
ATOM     22  C   UNL     1       8.232   2.279   0.000  0.00  0.00    +0.000 A 
ATOM     23  C   UNL     1       8.976   2.709   0.000  0.00  0.00    +0.000 A 
BRANCH  16  25
ATOM     24  O   UNL     1      13.276  -1.473   0.000  0.00  0.00    +0.000 OA
ATOM     25  C   UNL     1      11.133  -0.236   0.000  0.00  0.00    +0.000 A 
ATOM     26  C   UNL     1      11.133  -1.061   0.000  0.00  0.00    +0.000 A 
ATOM     27  C   UNL     1      11.847   0.177   0.000  0.00  0.00    +0.000 A 
ATOM     28  C   UNL     1      11.847  -1.473   0.000  0.00  0.00    +0.000 A 
ATOM     29  C   UNL     1      12.562  -0.236   0.000  0.00  0.00    +0.000 A 
ATOM     30  C   UNL     1      12.562  -1.061   0.000  0.00  0.00    +0.000 A 
ENDBRANCH  16  25
ENDBRANCH  10  15
ENDBRANCH   9  10
BRANCH   5  31
ATOM     31  C   UNL     1       6.846  -1.061   0.000  0.00  0.00    +0.000 C 
BRANCH  31  32
ATOM     32  O   UNL     1       6.132  -1.473   0.000  0.00  0.00    +0.000 OA
BRANCH  32  36
ATOM     33  O   UNL     1       4.663  -1.396   0.000  0.00  0.00    +0.000 OA
ATOM     34  C   UNL     1       5.331  -0.240   0.000  0.00  0.00    +0.000 C 
ATOM     35  C   UNL     1       4.524  -0.069   0.000  0.00  0.00    +0.000 C 
ATOM     36  C   UNL     1       5.417  -1.061   0.000  0.00  0.00    +0.000 C 
ATOM     37  C   UNL     1       4.112  -0.783   0.000  0.00  0.00    +0.000 C 
BRANCH  34  38
ATOM     38  O   UNL     1       5.944   0.312   0.000  0.00  0.00    +0.000 OA
BRANCH  38  40
ATOM     39  O   UNL     1       4.988   1.374   0.000  0.00  0.00    +0.000 OA
ATOM     40  C   UNL     1       5.772   1.119   0.000  0.00  0.00    +0.000 C 
ATOM     41  C   UNL     1       6.386   1.671   0.000  0.00  0.00    +0.000 C 
ENDBRANCH  38  40
ENDBRANCH  34  38
BRANCH  35  42
ATOM     42  O   UNL     1       4.188   0.685   0.000  0.00  0.00    +0.000 OA
BRANCH  42  44
ATOM     43  O   UNL     1       2.883   0.104   0.000  0.00  0.00    +0.000 OA
ATOM     44  C   UNL     1       3.368   0.771   0.000  0.00  0.00    +0.000 C 
ATOM     45  C   UNL     1       3.032   1.525   0.000  0.00  0.00    +0.000 C 
ENDBRANCH  42  44
ENDBRANCH  35  42
BRANCH  37  46
ATOM     46  C   UNL     1       3.291  -0.869   0.000  0.00  0.00    +0.000 C 
BRANCH  46  47
ATOM     47  O   UNL     1       2.955  -1.623   0.000  0.00  0.00    +0.000 OA
BRANCH  47  49
ATOM     48  O   UNL     1       1.650  -1.042   0.000  0.00  0.00    +0.000 OA
ATOM     49  C   UNL     1       2.135  -1.709   0.000  0.00  0.00    +0.000 C 
ATOM     50  C   UNL     1       1.799  -2.463   0.000  0.00  0.00    +0.000 C 
ENDBRANCH  47  49
ENDBRANCH  46  47
ENDBRANCH  37  46
ENDBRANCH  32  36
ENDBRANCH  31  32
ENDBRANCH   5  31
TORSDOF 13
