REMARK  Name = 44258207
REMARK  9 active torsions:
REMARK  status: ('A' for Active; 'I' for Inactive)
REMARK    1  A    between atoms: O_2  and  C_14
REMARK    2  A    between atoms: O_2  and  C_21
REMARK    3  A    between atoms: O_4  and  C_18
REMARK    4  A    between atoms: O_4  and  C_20
REMARK    5  A    between atoms: O_11  and  C_38
REMARK    6  A    between atoms: C_17  and  C_19
REMARK    7  A    between atoms: C_21  and  C_25
REMARK    8  A    between atoms: C_29  and  C_33
REMARK    9  A    between atoms: C_30  and  C_32
REMARK                            x       y       z     vdW  Elec       q    Type
REMARK                         _______ _______ _______ _____ _____    ______ ____
ROOT
ATOM      1  O   UNL     1       7.809  -0.433   0.000  0.00  0.00    +0.000 OA
ENDROOT
BRANCH   1   5
ATOM      2  O   UNL     1       9.257   2.094   0.000  0.00  0.00    +0.000 OA
ATOM      3  O   UNL     1       6.368   2.107   0.000  0.00  0.00    +0.000 OA
ATOM      4  O   UNL     1       7.119   3.340   0.000  0.00  0.00    +0.000 OA
ATOM      5  C   UNL     1       7.809   0.392   0.000  0.00  0.00    +0.000 A 
ATOM      6  C   UNL     1       8.551   0.825   0.000  0.00  0.00    +0.000 A 
ATOM      7  C   UNL     1       7.066   0.825   0.000  0.00  0.00    +0.000 A 
ATOM      8  C   UNL     1       8.541   1.684   0.000  0.00  0.00    +0.000 A 
ATOM      9  C   UNL     1       7.829   2.099   0.000  0.00  0.00    +0.000 A 
ATOM     10  C   UNL     1       7.076   1.684   0.000  0.00  0.00    +0.000 A 
ATOM     11  C   UNL     1       7.832   2.924   0.000  0.00  0.00    +0.000 A 
ATOM     12  C   UNL     1       9.261   2.919   0.000  0.00  0.00    +0.000 A 
ATOM     13  C   UNL     1       8.548   3.334   0.000  0.00  0.00    +0.000 A 
BRANCH  12  15
ATOM     14  O   UNL     1      12.125   4.558   0.000  0.00  0.00    +0.000 OA
ATOM     15  C   UNL     1       9.977   3.329   0.000  0.00  0.00    +0.000 A 
ATOM     16  C   UNL     1      10.690   2.913   0.000  0.00  0.00    +0.000 A 
ATOM     17  C   UNL     1       9.980   4.154   0.000  0.00  0.00    +0.000 A 
ATOM     18  C   UNL     1      11.405   3.323   0.000  0.00  0.00    +0.000 A 
ATOM     19  C   UNL     1      10.696   4.563   0.000  0.00  0.00    +0.000 A 
ATOM     20  C   UNL     1      11.409   4.148   0.000  0.00  0.00    +0.000 A 
BRANCH  18  21
ATOM     21  O   UNL     1      12.118   2.908   0.000  0.00  0.00    +0.000 OA
ATOM     22  C   UNL     1      12.835   3.317   0.000  0.00  0.00    +0.000 C 
ENDBRANCH  18  21
ENDBRANCH  12  15
ENDBRANCH   1   5
BRANCH   1  30
ATOM     23  O   UNL     1       6.380  -0.433   0.000  0.00  0.00    +0.000 OA
ATOM     24  O   UNL     1       4.951  -2.083   0.000  0.00  0.00    +0.000 OA
ATOM     25  O   UNL     1       7.809  -2.083   0.000  0.00  0.00    +0.000 OA
ATOM     26  C   UNL     1       6.380  -2.083   0.000  0.00  0.00    +0.000 C 
ATOM     27  C   UNL     1       5.665  -1.670   0.000  0.00  0.00    +0.000 C 
ATOM     28  C   UNL     1       7.094  -1.670   0.000  0.00  0.00    +0.000 C 
ATOM     29  C   UNL     1       5.665  -0.845   0.000  0.00  0.00    +0.000 C 
ATOM     30  C   UNL     1       7.094  -0.845   0.000  0.00  0.00    +0.000 C 
BRANCH  29  32
ATOM     31  O   UNL     1       4.236  -0.845   0.000  0.00  0.00    +0.000 OA
ATOM     32  C   UNL     1       4.951  -0.433   0.000  0.00  0.00    +0.000 C 
ENDBRANCH  29  32
BRANCH  26  33
ATOM     33  O   UNL     1       6.380  -2.908   0.000  0.00  0.00    +0.000 OA
BRANCH  33  35
ATOM     34  O   UNL     1       4.951  -2.908   0.000  0.00  0.00    +0.000 OA
ATOM     35  C   UNL     1       5.665  -3.320   0.000  0.00  0.00    +0.000 C 
BRANCH  35  36
ATOM     36  C   UNL     1       5.665  -4.145   0.000  0.00  0.00    +0.000 C 
ATOM     37  C   UNL     1       4.951  -4.558   0.000  0.00  0.00    +0.000 C 
BRANCH  37  39
ATOM     38  O   UNL     1       2.093  -2.908   0.000  0.00  0.00    +0.000 OA
ATOM     39  C   UNL     1       4.236  -4.145   0.000  0.00  0.00    +0.000 A 
ATOM     40  C   UNL     1       3.522  -4.558   0.000  0.00  0.00    +0.000 A 
ATOM     41  C   UNL     1       4.236  -3.320   0.000  0.00  0.00    +0.000 A 
ATOM     42  C   UNL     1       2.808  -4.145   0.000  0.00  0.00    +0.000 A 
ATOM     43  C   UNL     1       3.522  -2.908   0.000  0.00  0.00    +0.000 A 
ATOM     44  C   UNL     1       2.808  -3.320   0.000  0.00  0.00    +0.000 A 
ENDBRANCH  37  39
ENDBRANCH  35  36
ENDBRANCH  33  35
ENDBRANCH  26  33
ENDBRANCH   1  30
TORSDOF 9
