REMARK  Name = 131838543
REMARK  6 active torsions:
REMARK  status: ('A' for Active; 'I' for Inactive)
REMARK    1  A    between atoms: S_1  and  O_9
REMARK    2  A    between atoms: O_6  and  C_28
REMARK    3  A    between atoms: O_7  and  C_29
REMARK    4  A    between atoms: O_9  and  C_35
REMARK    5  A    between atoms: C_18  and  C_21
REMARK    6  A    between atoms: C_20  and  C_25
REMARK                            x       y       z     vdW  Elec       q    Type
REMARK                         _______ _______ _______ _____ _____    ______ ____
ROOT
ATOM      1  O   UNL     1       7.530   0.787   0.000  0.00  0.00    +0.000 OA
ATOM      2  O   UNL     1       6.079  -1.692   0.000  0.00  0.00    +0.000 OA
ATOM      3  O   UNL     1       5.387   1.199   0.000  0.00  0.00    +0.000 OA
ATOM      4  O   UNL     1       9.004  -1.726   0.000  0.00  0.00    +0.000 OA
ATOM      5  C   UNL     1       6.816  -0.451   0.000  0.00  0.00    +0.000 A 
ATOM      6  C   UNL     1       6.101  -0.038   0.000  0.00  0.00    +0.000 A 
ATOM      7  C   UNL     1       7.530  -0.038   0.000  0.00  0.00    +0.000 A 
ATOM      8  C   UNL     1       6.802  -1.310   0.000  0.00  0.00    +0.000 A 
ATOM      9  C   UNL     1       6.101   0.787   0.000  0.00  0.00    +0.000 A 
ATOM     10  C   UNL     1       6.816   1.199   0.000  0.00  0.00    +0.000 A 
ATOM     11  C   UNL     1       5.392  -0.447   0.000  0.00  0.00    +0.000 A 
ATOM     12  C   UNL     1       5.381  -1.265   0.000  0.00  0.00    +0.000 A 
ATOM     13  C   UNL     1       8.281  -0.457   0.000  0.00  0.00    +0.000 A 
ATOM     14  C   UNL     1       7.543  -1.746   0.000  0.00  0.00    +0.000 A 
ATOM     15  C   UNL     1       8.288  -1.316   0.000  0.00  0.00    +0.000 A 
ENDROOT
BRANCH  10  17
ATOM     16  O   UNL     1       6.816   4.499   0.000  0.00  0.00    +0.000 OA
ATOM     17  C   UNL     1       6.816   2.024   0.000  0.00  0.00    +0.000 A 
ATOM     18  C   UNL     1       7.530   2.437   0.000  0.00  0.00    +0.000 A 
ATOM     19  C   UNL     1       6.101   2.437   0.000  0.00  0.00    +0.000 A 
ATOM     20  C   UNL     1       6.101   3.262   0.000  0.00  0.00    +0.000 A 
ATOM     21  C   UNL     1       7.530   3.262   0.000  0.00  0.00    +0.000 A 
ATOM     22  C   UNL     1       6.816   3.674   0.000  0.00  0.00    +0.000 A 
BRANCH  20  23
ATOM     23  O   UNL     1       5.387   3.674   0.000  0.00  0.00    +0.000 OA
ATOM     24  C   UNL     1       5.387   4.499   0.000  0.00  0.00    +0.000 C 
ENDBRANCH  20  23
BRANCH  21  25
ATOM     25  O   UNL     1       8.245   3.674   0.000  0.00  0.00    +0.000 OA
ATOM     26  C   UNL     1       8.959   3.262   0.000  0.00  0.00    +0.000 C 
ENDBRANCH  21  25
ENDBRANCH  10  17
BRANCH  12  27
ATOM     27  C   UNL     1       4.659  -1.663   0.000  0.00  0.00    +0.000 A 
ATOM     28  C   UNL     1       4.642  -2.488   0.000  0.00  0.00    +0.000 A 
ATOM     29  C   UNL     1       3.952  -1.237   0.000  0.00  0.00    +0.000 A 
ATOM     30  C   UNL     1       3.920  -2.886   0.000  0.00  0.00    +0.000 A 
ATOM     31  C   UNL     1       3.230  -1.635   0.000  0.00  0.00    +0.000 A 
ATOM     32  C   UNL     1       3.214  -2.460   0.000  0.00  0.00    +0.000 A 
BRANCH  32  33
ATOM     33  O   UNL     1       2.491  -2.858   0.000  0.00  0.00    +0.000 OA
BRANCH  33  34
ATOM     34  S   UNL     1       2.475  -3.683   0.000  0.00  0.00    +0.000 S 
ATOM     35  O   UNL     1       2.459  -4.508   0.000  0.00  0.00    +0.000 OA
ATOM     36  O   UNL     1       1.650  -3.667   0.000  0.00  0.00    +0.000 OA
ATOM     37  O   UNL     1       3.300  -3.699   0.000  0.00  0.00    +0.000 OA
ENDBRANCH  33  34
ENDBRANCH  32  33
ENDBRANCH  12  27
TORSDOF 6
