REMARK  Name = 44259013
REMARK  11 active torsions:
REMARK  status: ('A' for Active; 'I' for Inactive)
REMARK    1  A    between atoms: O_2  and  C_15
REMARK    2  A    between atoms: O_2  and  C_22
REMARK    3  A    between atoms: O_3  and  C_17
REMARK    4  A    between atoms: O_3  and  C_23
REMARK    5  A    between atoms: O_5  and  C_19
REMARK    6  A    between atoms: O_5  and  C_21
REMARK    7  A    between atoms: C_22  and  C_27
REMARK    8  A    between atoms: C_23  and  C_28
REMARK    9  A    between atoms: C_24  and  C_30
REMARK   10  A    between atoms: C_33  and  C_39
REMARK   11  A    between atoms: C_34  and  C_42
REMARK                            x       y       z     vdW  Elec       q    Type
REMARK                         _______ _______ _______ _____ _____    ______ ____
ROOT
ATOM      1  O   UNL     1       5.937   0.511   0.000  0.00  0.00    +0.000 OA
ATOM      2  O   UNL     1       5.937  -1.964   0.000  0.00  0.00    +0.000 OA
ATOM      3  C   UNL     1       5.222  -0.727   0.000  0.00  0.00    +0.000 C 
ATOM      4  C   UNL     1       5.937  -1.139   0.000  0.00  0.00    +0.000 C 
ATOM      5  C   UNL     1       6.652  -0.727   0.000  0.00  0.00    +0.000 C 
ATOM      6  C   UNL     1       5.222   0.098   0.000  0.00  0.00    +0.000 C 
ATOM      7  C   UNL     1       6.652   0.098   0.000  0.00  0.00    +0.000 C 
ATOM      8  C   UNL     1       4.508   0.511   0.000  0.00  0.00    +0.000 C 
ENDROOT
BRANCH   3   9
ATOM      9  O   UNL     1       4.508  -1.139   0.000  0.00  0.00    +0.000 OA
BRANCH   9  11
ATOM     10  O   UNL     1       3.793   0.098   0.000  0.00  0.00    +0.000 OA
ATOM     11  C   UNL     1       3.793  -0.727   0.000  0.00  0.00    +0.000 C 
BRANCH  11  12
ATOM     12  C   UNL     1       3.079  -1.139   0.000  0.00  0.00    +0.000 C 
ATOM     13  C   UNL     1       2.365  -0.727   0.000  0.00  0.00    +0.000 C 
BRANCH  13  15
ATOM     14  O   UNL     1       2.365   2.574   0.000  0.00  0.00    +0.000 OA
ATOM     15  C   UNL     1       2.365   0.098   0.000  0.00  0.00    +0.000 A 
ATOM     16  C   UNL     1       1.650   0.511   0.000  0.00  0.00    +0.000 A 
ATOM     17  C   UNL     1       3.079   0.511   0.000  0.00  0.00    +0.000 A 
ATOM     18  C   UNL     1       1.650   1.336   0.000  0.00  0.00    +0.000 A 
ATOM     19  C   UNL     1       3.079   1.336   0.000  0.00  0.00    +0.000 A 
ATOM     20  C   UNL     1       2.365   1.748   0.000  0.00  0.00    +0.000 A 
ENDBRANCH  13  15
ENDBRANCH  11  12
ENDBRANCH   9  11
ENDBRANCH   3   9
BRANCH   5  21
ATOM     21  O   UNL     1       7.366  -1.139   0.000  0.00  0.00    +0.000 OA
BRANCH  21  23
ATOM     22  O   UNL     1       6.652  -2.377   0.000  0.00  0.00    +0.000 OA
ATOM     23  C   UNL     1       7.366  -1.964   0.000  0.00  0.00    +0.000 C 
BRANCH  23  24
ATOM     24  C   UNL     1       8.080  -2.377   0.000  0.00  0.00    +0.000 C 
ATOM     25  C   UNL     1       8.080  -3.202   0.000  0.00  0.00    +0.000 C 
BRANCH  25  27
ATOM     26  O   UNL     1       5.222  -4.852   0.000  0.00  0.00    +0.000 OA
ATOM     27  C   UNL     1       7.366  -3.614   0.000  0.00  0.00    +0.000 A 
ATOM     28  C   UNL     1       7.366  -4.439   0.000  0.00  0.00    +0.000 A 
ATOM     29  C   UNL     1       6.652  -3.202   0.000  0.00  0.00    +0.000 A 
ATOM     30  C   UNL     1       6.652  -4.852   0.000  0.00  0.00    +0.000 A 
ATOM     31  C   UNL     1       5.937  -3.614   0.000  0.00  0.00    +0.000 A 
ATOM     32  C   UNL     1       5.937  -4.439   0.000  0.00  0.00    +0.000 A 
ENDBRANCH  25  27
ENDBRANCH  23  24
ENDBRANCH  21  23
ENDBRANCH   5  21
BRANCH   7  33
ATOM     33  O   UNL     1       7.366   0.511   0.000  0.00  0.00    +0.000 OA
BRANCH  33  38
ATOM     34  O   UNL     1       8.080   2.574   0.000  0.00  0.00    +0.000 OA
ATOM     35  O   UNL     1       5.937   1.336   0.000  0.00  0.00    +0.000 OA
ATOM     36  O   UNL     1       5.191   2.571   0.000  0.00  0.00    +0.000 OA
ATOM     37  O   UNL     1       6.641   5.106   0.000  0.00  0.00    +0.000 OA
ATOM     38  C   UNL     1       7.366   1.336   0.000  0.00  0.00    +0.000 A 
ATOM     39  C   UNL     1       8.080   1.748   0.000  0.00  0.00    +0.000 A 
ATOM     40  C   UNL     1       6.652   1.748   0.000  0.00  0.00    +0.000 A 
ATOM     41  C   UNL     1       6.652   2.574   0.000  0.00  0.00    +0.000 A 
ATOM     42  C   UNL     1       7.366   2.986   0.000  0.00  0.00    +0.000 A 
ATOM     43  C   UNL     1       5.901   2.992   0.000  0.00  0.00    +0.000 A 
ATOM     44  C   UNL     1       7.379   3.845   0.000  0.00  0.00    +0.000 A 
ATOM     45  C   UNL     1       5.894   3.851   0.000  0.00  0.00    +0.000 A 
ATOM     46  C   UNL     1       6.638   4.281   0.000  0.00  0.00    +0.000 A 
BRANCH  39  48
ATOM     47  O   UNL     1      10.938   0.098   0.000  0.00  0.00    +0.000 OA
ATOM     48  C   UNL     1       8.795   1.336   0.000  0.00  0.00    +0.000 A 
ATOM     49  C   UNL     1       8.795   0.511   0.000  0.00  0.00    +0.000 A 
ATOM     50  C   UNL     1       9.509   1.748   0.000  0.00  0.00    +0.000 A 
ATOM     51  C   UNL     1       9.509   0.098   0.000  0.00  0.00    +0.000 A 
ATOM     52  C   UNL     1      10.224   1.336   0.000  0.00  0.00    +0.000 A 
ATOM     53  C   UNL     1      10.224   0.511   0.000  0.00  0.00    +0.000 A 
ENDBRANCH  39  48
ENDBRANCH  33  38
ENDBRANCH   7  33
TORSDOF 11
