REMARK  Name = 131753029
REMARK  6 active torsions:
REMARK  status: ('A' for Active; 'I' for Inactive)
REMARK    1  A    between atoms: O_2  and  C_14
REMARK    2  A    between atoms: O_4  and  C_18
REMARK    3  A    between atoms: C_7  and  C_10
REMARK    4  A    between atoms: C_16  and  C_22
REMARK    5  A    between atoms: C_17  and  C_23
REMARK    6  A    between atoms: C_22  and  C_24
REMARK                            x       y       z     vdW  Elec       q    Type
REMARK                         _______ _______ _______ _____ _____    ______ ____
ROOT
ATOM      1  O   UNL     1       4.974  -1.280   0.000  0.00  0.00    +0.000 OA
ATOM      2  O   UNL     1       2.093  -1.252   0.000  0.00  0.00    +0.000 OA
ATOM      3  C   UNL     1       5.721   0.003   0.000  0.00  0.00    +0.000 C 
ATOM      4  C   UNL     1       4.974   0.427   0.000  0.00  0.00    +0.000 C 
ATOM      5  C   UNL     1       5.721  -0.856   0.000  0.00  0.00    +0.000 C 
ATOM      6  C   UNL     1       4.236  -0.014   0.000  0.00  0.00    +0.000 A 
ATOM      7  C   UNL     1       4.236  -0.839   0.000  0.00  0.00    +0.000 A 
ATOM      8  C   UNL     1       3.522   0.398   0.000  0.00  0.00    +0.000 A 
ATOM      9  C   UNL     1       3.522  -1.252   0.000  0.00  0.00    +0.000 A 
ATOM     10  C   UNL     1       2.808  -0.014   0.000  0.00  0.00    +0.000 A 
ATOM     11  C   UNL     1       2.808  -0.839   0.000  0.00  0.00    +0.000 A 
ENDROOT
BRANCH   3  13
ATOM     12  O   UNL     1       7.154  -0.816   0.000  0.00  0.00    +0.000 OA
ATOM     13  C   UNL     1       6.434   0.418   0.000  0.00  0.00    +0.000 A 
ATOM     14  C   UNL     1       7.150   0.009   0.000  0.00  0.00    +0.000 A 
ATOM     15  C   UNL     1       6.431   1.243   0.000  0.00  0.00    +0.000 A 
ATOM     16  C   UNL     1       7.863   0.424   0.000  0.00  0.00    +0.000 A 
ATOM     17  C   UNL     1       7.860   1.249   0.000  0.00  0.00    +0.000 A 
ATOM     18  C   UNL     1       7.144   1.659   0.000  0.00  0.00    +0.000 A 
BRANCH  17  19
ATOM     19  O   UNL     1       8.573   1.664   0.000  0.00  0.00    +0.000 OA
ATOM     20  C   UNL     1       8.570   2.489   0.000  0.00  0.00    +0.000 C 
ENDBRANCH  17  19
BRANCH  16  21
ATOM     21  C   UNL     1       8.579   0.014   0.000  0.00  0.00    +0.000 C 
BRANCH  21  22
ATOM     22  C   UNL     1       9.292   0.429   0.000  0.00  0.00    +0.000 C 
ATOM     23  C   UNL     1      10.008   0.020   0.000  0.00  0.00    +0.000 C 
ATOM     24  C   UNL     1      10.721   0.435   0.000  0.00  0.00    +0.000 C 
ATOM     25  C   UNL     1      10.011  -0.805   0.000  0.00  0.00    +0.000 C 
ENDBRANCH  21  22
ENDBRANCH  16  21
ENDBRANCH   3  13
BRANCH   8  26
ATOM     26  O   UNL     1       3.522   1.223   0.000  0.00  0.00    +0.000 OA
ATOM     27  C   UNL     1       2.808   1.636   0.000  0.00  0.00    +0.000 C 
ENDBRANCH   8  26
BRANCH   9  29
ATOM     28  O   UNL     1       2.808  -2.489   0.000  0.00  0.00    +0.000 OA
ATOM     29  C   UNL     1       3.522  -2.077   0.000  0.00  0.00    +0.000 C 
ENDBRANCH   9  29
TORSDOF 6
