REMARK  Name = 131750808
REMARK  4 active torsions:
REMARK  status: ('A' for Active; 'I' for Inactive)
REMARK    1  A    between atoms: S_1  and  O_4
REMARK    2  A    between atoms: O_4  and  C_21
REMARK    3  A    between atoms: O_6  and  C_23
REMARK    4  A    between atoms: C_11  and  C_13
REMARK                            x       y       z     vdW  Elec       q    Type
REMARK                         _______ _______ _______ _____ _____    ______ ____
ROOT
ATOM      1  O   UNL     1       5.006   0.317   0.000  0.00  0.00    +0.000 OA
ATOM      2  O   UNL     1       5.006   2.792   0.000  0.00  0.00    +0.000 OA
ATOM      3  O   UNL     1       3.564   2.821   0.000  0.00  0.00    +0.000 OA
ATOM      4  O   UNL     1       2.094   0.297   0.000  0.00  0.00    +0.000 OA
ATOM      5  C   UNL     1       5.721   0.730   0.000  0.00  0.00    +0.000 C 
ATOM      6  C   UNL     1       5.721   1.555   0.000  0.00  0.00    +0.000 C 
ATOM      7  C   UNL     1       5.006   1.967   0.000  0.00  0.00    +0.000 C 
ATOM      8  C   UNL     1       4.292   1.555   0.000  0.00  0.00    +0.000 A 
ATOM      9  C   UNL     1       4.292   0.730   0.000  0.00  0.00    +0.000 A 
ATOM     10  C   UNL     1       3.554   1.996   0.000  0.00  0.00    +0.000 A 
ATOM     11  C   UNL     1       3.554   0.289   0.000  0.00  0.00    +0.000 A 
ATOM     12  C   UNL     1       2.807   0.713   0.000  0.00  0.00    +0.000 A 
ATOM     13  C   UNL     1       2.807   1.572   0.000  0.00  0.00    +0.000 A 
ENDROOT
BRANCH   5  14
ATOM     14  C   UNL     1       6.435   0.317   0.000  0.00  0.00    +0.000 A 
ATOM     15  C   UNL     1       6.435  -0.508   0.000  0.00  0.00    +0.000 A 
ATOM     16  C   UNL     1       7.150   0.730   0.000  0.00  0.00    +0.000 A 
ATOM     17  C   UNL     1       7.150  -0.920   0.000  0.00  0.00    +0.000 A 
ATOM     18  C   UNL     1       7.864   0.317   0.000  0.00  0.00    +0.000 A 
ATOM     19  C   UNL     1       7.864  -0.508   0.000  0.00  0.00    +0.000 A 
BRANCH  19  20
ATOM     20  O   UNL     1       8.579  -0.920   0.000  0.00  0.00    +0.000 OA
ATOM     21  C   UNL     1       9.293  -0.508   0.000  0.00  0.00    +0.000 C 
ENDBRANCH  19  20
BRANCH  17  22
ATOM     22  O   UNL     1       7.150  -1.745   0.000  0.00  0.00    +0.000 OA
BRANCH  22  23
ATOM     23  S   UNL     1       6.435  -2.158   0.000  0.00  0.00    +0.000 S 
ATOM     24  O   UNL     1       5.721  -2.570   0.000  0.00  0.00    +0.000 OA
ATOM     25  O   UNL     1       6.848  -2.872   0.000  0.00  0.00    +0.000 OA
ATOM     26  O   UNL     1       6.023  -1.443   0.000  0.00  0.00    +0.000 OA
ENDBRANCH  22  23
ENDBRANCH  17  22
ENDBRANCH   5  14
TORSDOF 4
