REMARK  Name = 131752278
REMARK  5 active torsions:
REMARK  status: ('A' for Active; 'I' for Inactive)
REMARK    1  A    between atoms: O_2  and  C_19
REMARK    2  A    between atoms: O_2  and  C_22
REMARK    3  A    between atoms: O_13  and  C_37
REMARK    4  A    between atoms: C_20  and  C_21
REMARK    5  A    between atoms: C_23  and  C_27
REMARK                            x       y       z     vdW  Elec       q    Type
REMARK                         _______ _______ _______ _____ _____    ______ ____
ROOT
ATOM      1  O   UNL     1       6.398   1.157   0.000  0.00  0.00    +0.000 OA
ATOM      2  O   UNL     1       3.603   2.940   0.000  0.00  0.00    +0.000 OA
ATOM      3  O   UNL     1       4.751   3.608   0.000  0.00  0.00    +0.000 OA
ATOM      4  O   UNL     1       4.205  -0.109   0.000  0.00  0.00    +0.000 OA
ATOM      5  O   UNL     1       3.504   1.152   0.000  0.00  0.00    +0.000 OA
ATOM      6  C   UNL     1       5.665  -0.135   0.000  0.00  0.00    +0.000 A 
ATOM      7  C   UNL     1       6.408   0.298   0.000  0.00  0.00    +0.000 A 
ATOM      8  C   UNL     1       4.923   0.298   0.000  0.00  0.00    +0.000 A 
ATOM      9  C   UNL     1       4.933   1.157   0.000  0.00  0.00    +0.000 A 
ATOM     10  C   UNL     1       5.646   1.573   0.000  0.00  0.00    +0.000 A 
ATOM     11  C   UNL     1       4.217   1.567   0.000  0.00  0.00    +0.000 A 
ATOM     12  C   UNL     1       4.213   2.392   0.000  0.00  0.00    +0.000 A 
ATOM     13  C   UNL     1       5.642   2.397   0.000  0.00  0.00    +0.000 A 
ATOM     14  C   UNL     1       4.926   2.807   0.000  0.00  0.00    +0.000 A 
ATOM     15  C   UNL     1       3.935   3.690   0.000  0.00  0.00    +0.000 C 
ENDROOT
BRANCH   7  18
ATOM     16  O   UNL     1       7.856  -2.166   0.000  0.00  0.00    +0.000 OA
ATOM     17  O   UNL     1       9.266   0.320   0.000  0.00  0.00    +0.000 OA
ATOM     18  C   UNL     1       7.125  -0.109   0.000  0.00  0.00    +0.000 A 
ATOM     19  C   UNL     1       7.837   0.309   0.000  0.00  0.00    +0.000 A 
ATOM     20  C   UNL     1       7.132  -0.934   0.000  0.00  0.00    +0.000 A 
ATOM     21  C   UNL     1       7.849  -1.341   0.000  0.00  0.00    +0.000 A 
ATOM     22  C   UNL     1       8.554  -0.098   0.000  0.00  0.00    +0.000 A 
ATOM     23  C   UNL     1       8.561  -0.923   0.000  0.00  0.00    +0.000 A 
BRANCH  23  24
ATOM     24  O   UNL     1       9.278  -1.330   0.000  0.00  0.00    +0.000 OA
ATOM     25  C   UNL     1       9.285  -2.155   0.000  0.00  0.00    +0.000 C 
ENDBRANCH  23  24
ENDBRANCH   7  18
BRANCH   6  26
ATOM     26  O   UNL     1       5.665  -0.960   0.000  0.00  0.00    +0.000 OA
BRANCH  26  34
ATOM     27  O   UNL     1       4.236  -0.960   0.000  0.00  0.00    +0.000 OA
ATOM     28  O   UNL     1       4.236  -3.434   0.000  0.00  0.00    +0.000 OA
ATOM     29  O   UNL     1       5.665  -2.610   0.000  0.00  0.00    +0.000 OA
ATOM     30  O   UNL     1       2.808  -2.610   0.000  0.00  0.00    +0.000 OA
ATOM     31  C   UNL     1       4.236  -2.610   0.000  0.00  0.00    +0.000 C 
ATOM     32  C   UNL     1       4.951  -2.197   0.000  0.00  0.00    +0.000 C 
ATOM     33  C   UNL     1       3.522  -2.197   0.000  0.00  0.00    +0.000 C 
ATOM     34  C   UNL     1       4.951  -1.372   0.000  0.00  0.00    +0.000 C 
ATOM     35  C   UNL     1       3.522  -1.372   0.000  0.00  0.00    +0.000 C 
BRANCH  35  38
ATOM     36  O   UNL     1       2.093  -1.372   0.000  0.00  0.00    +0.000 OA
ATOM     37  O   UNL     1       2.808  -0.135   0.000  0.00  0.00    +0.000 OA
ATOM     38  C   UNL     1       2.808  -0.960   0.000  0.00  0.00    +0.000 C 
ENDBRANCH  35  38
ENDBRANCH  26  34
ENDBRANCH   6  26
TORSDOF 5
