REMARK  Name = 131751598
REMARK  8 active torsions:
REMARK  status: ('A' for Active; 'I' for Inactive)
REMARK    1  A    between atoms: O_3  and  C_20
REMARK    2  A    between atoms: O_3  and  C_25
REMARK    3  A    between atoms: O_6  and  C_23
REMARK    4  A    between atoms: O_6  and  C_27
REMARK    5  A    between atoms: C_15  and  C_25
REMARK    6  A    between atoms: C_34  and  C_36
REMARK    7  A    between atoms: C_38  and  C_40
REMARK    8  A    between atoms: C_40  and  C_43
REMARK                            x       y       z     vdW  Elec       q    Type
REMARK                         _______ _______ _______ _____ _____    ______ ____
ROOT
ATOM      1  O   UNL     1       4.916   1.802   0.000  0.00  0.00    +0.000 OA
ATOM      2  O   UNL     1       3.459  -0.693   0.000  0.00  0.00    +0.000 OA
ATOM      3  O   UNL     1       2.768   0.573   0.000  0.00  0.00    +0.000 OA
ATOM      4  C   UNL     1       5.665  -0.303   0.000  0.00  0.00    +0.000 A 
ATOM      5  C   UNL     1       5.662   0.556   0.000  0.00  0.00    +0.000 A 
ATOM      6  C   UNL     1       4.919  -0.730   0.000  0.00  0.00    +0.000 A 
ATOM      7  C   UNL     1       4.913   0.977   0.000  0.00  0.00    +0.000 A 
ATOM      8  C   UNL     1       4.180  -0.292   0.000  0.00  0.00    +0.000 A 
ATOM      9  C   UNL     1       4.197   0.567   0.000  0.00  0.00    +0.000 A 
ATOM     10  C   UNL     1       3.484   0.983   0.000  0.00  0.00    +0.000 A 
ATOM     11  C   UNL     1       4.203   2.217   0.000  0.00  0.00    +0.000 A 
ATOM     12  C   UNL     1       3.487   1.808   0.000  0.00  0.00    +0.000 A 
ENDROOT
BRANCH  11  14
ATOM     13  O   UNL     1       4.216   5.517   0.000  0.00  0.00    +0.000 OA
ATOM     14  C   UNL     1       4.206   3.042   0.000  0.00  0.00    +0.000 A 
ATOM     15  C   UNL     1       4.922   3.452   0.000  0.00  0.00    +0.000 A 
ATOM     16  C   UNL     1       4.926   4.277   0.000  0.00  0.00    +0.000 A 
ATOM     17  C   UNL     1       3.493   3.458   0.000  0.00  0.00    +0.000 A 
ATOM     18  C   UNL     1       4.213   4.692   0.000  0.00  0.00    +0.000 A 
ATOM     19  C   UNL     1       3.497   4.282   0.000  0.00  0.00    +0.000 A 
BRANCH  16  20
ATOM     20  C   UNL     1       5.642   4.687   0.000  0.00  0.00    +0.000 C 
BRANCH  20  21
ATOM     21  C   UNL     1       5.645   5.512   0.000  0.00  0.00    +0.000 C 
ATOM     22  C   UNL     1       6.361   5.921   0.000  0.00  0.00    +0.000 C 
ATOM     23  C   UNL     1       6.364   6.747   0.000  0.00  0.00    +0.000 C 
ATOM     24  C   UNL     1       7.074   5.506   0.000  0.00  0.00    +0.000 C 
ENDBRANCH  20  21
ENDBRANCH  16  20
ENDBRANCH  11  14
BRANCH   4  25
ATOM     25  O   UNL     1       6.380  -0.716   0.000  0.00  0.00    +0.000 OA
BRANCH  25  34
ATOM     26  O   UNL     1       5.665  -1.953   0.000  0.00  0.00    +0.000 OA
ATOM     27  O   UNL     1       6.380  -4.016   0.000  0.00  0.00    +0.000 OA
ATOM     28  O   UNL     1       7.809  -3.191   0.000  0.00  0.00    +0.000 OA
ATOM     29  O   UNL     1       7.809  -1.541   0.000  0.00  0.00    +0.000 OA
ATOM     30  C   UNL     1       5.665  -2.778   0.000  0.00  0.00    +0.000 C 
ATOM     31  C   UNL     1       6.380  -3.191   0.000  0.00  0.00    +0.000 C 
ATOM     32  C   UNL     1       7.094  -2.778   0.000  0.00  0.00    +0.000 C 
ATOM     33  C   UNL     1       7.094  -1.953   0.000  0.00  0.00    +0.000 C 
ATOM     34  C   UNL     1       6.380  -1.541   0.000  0.00  0.00    +0.000 C 
BRANCH  30  35
ATOM     35  C   UNL     1       4.951  -3.191   0.000  0.00  0.00    +0.000 C 
BRANCH  35  36
ATOM     36  O   UNL     1       4.951  -4.016   0.000  0.00  0.00    +0.000 OA
BRANCH  36  42
ATOM     37  O   UNL     1       3.522  -4.016   0.000  0.00  0.00    +0.000 OA
ATOM     38  O   UNL     1       4.951  -5.666   0.000  0.00  0.00    +0.000 OA
ATOM     39  O   UNL     1       3.522  -6.491   0.000  0.00  0.00    +0.000 OA
ATOM     40  O   UNL     1       2.093  -5.666   0.000  0.00  0.00    +0.000 OA
ATOM     41  C   UNL     1       4.236  -5.253   0.000  0.00  0.00    +0.000 C 
ATOM     42  C   UNL     1       4.236  -4.428   0.000  0.00  0.00    +0.000 C 
ATOM     43  C   UNL     1       3.522  -5.666   0.000  0.00  0.00    +0.000 C 
ATOM     44  C   UNL     1       2.808  -5.253   0.000  0.00  0.00    +0.000 C 
ATOM     45  C   UNL     1       2.808  -4.428   0.000  0.00  0.00    +0.000 C 
ATOM     46  C   UNL     1       2.093  -4.016   0.000  0.00  0.00    +0.000 C 
ENDBRANCH  36  42
ENDBRANCH  35  36
ENDBRANCH  30  35
ENDBRANCH  25  34
ENDBRANCH   4  25
TORSDOF 8
