REMARK  Name = 131751647
REMARK  12 active torsions:
REMARK  status: ('A' for Active; 'I' for Inactive)
REMARK    1  A    between atoms: O_3  and  C_29
REMARK    2  A    between atoms: O_3  and  C_31
REMARK    3  A    between atoms: O_12  and  C_34
REMARK    4  A    between atoms: O_12  and  C_41
REMARK    5  A    between atoms: O_17  and  C_53
REMARK    6  A    between atoms: O_18  and  C_54
REMARK    7  A    between atoms: C_20  and  C_25
REMARK    8  A    between atoms: C_24  and  C_32
REMARK    9  A    between atoms: C_30  and  C_34
REMARK   10  A    between atoms: C_40  and  C_42
REMARK   11  A    between atoms: C_41  and  C_43
REMARK   12  A    between atoms: C_48  and  C_50
REMARK                            x       y       z     vdW  Elec       q    Type
REMARK                         _______ _______ _______ _____ _____    ______ ____
ROOT
ATOM      1  O   UNL     1      12.096   1.174   0.000  0.00  0.00    +0.000 OA
ATOM      2  O   UNL     1       9.201   1.179   0.000  0.00  0.00    +0.000 OA
ATOM      3  O   UNL     1      11.399   2.437   0.000  0.00  0.00    +0.000 OA
ATOM      4  C   UNL     1      11.381  -0.064   0.000  0.00  0.00    +0.000 A 
ATOM      5  C   UNL     1      10.667  -0.476   0.000  0.00  0.00    +0.000 A 
ATOM      6  C   UNL     1      11.381   0.761   0.000  0.00  0.00    +0.000 A 
ATOM      7  C   UNL     1       9.952  -0.064   0.000  0.00  0.00    +0.000 A 
ATOM      8  C   UNL     1      10.667   1.174   0.000  0.00  0.00    +0.000 A 
ATOM      9  C   UNL     1       9.952   0.761   0.000  0.00  0.00    +0.000 A 
ATOM     10  C   UNL     1      10.680   2.033   0.000  0.00  0.00    +0.000 A 
ATOM     11  C   UNL     1       9.939   2.468   0.000  0.00  0.00    +0.000 A 
ATOM     12  C   UNL     1       9.195   2.038   0.000  0.00  0.00    +0.000 A 
ENDROOT
BRANCH   4  17
ATOM     13  O   UNL     1      12.810  -0.064   0.000  0.00  0.00    +0.000 OA
ATOM     14  O   UNL     1      11.381  -1.714   0.000  0.00  0.00    +0.000 OA
ATOM     15  O   UNL     1      12.810  -2.539   0.000  0.00  0.00    +0.000 OA
ATOM     16  O   UNL     1      14.239  -1.714   0.000  0.00  0.00    +0.000 OA
ATOM     17  C   UNL     1      12.096  -0.476   0.000  0.00  0.00    +0.000 C 
ATOM     18  C   UNL     1      12.096  -1.301   0.000  0.00  0.00    +0.000 C 
ATOM     19  C   UNL     1      12.810  -1.714   0.000  0.00  0.00    +0.000 C 
ATOM     20  C   UNL     1      13.524  -1.301   0.000  0.00  0.00    +0.000 C 
ATOM     21  C   UNL     1      13.524  -0.476   0.000  0.00  0.00    +0.000 C 
BRANCH  21  23
ATOM     22  O   UNL     1      14.954  -0.476   0.000  0.00  0.00    +0.000 OA
ATOM     23  C   UNL     1      14.239  -0.064   0.000  0.00  0.00    +0.000 C 
ENDBRANCH  21  23
ENDBRANCH   4  17
BRANCH  12  25
ATOM     24  O   UNL     1       6.331   3.677   0.000  0.00  0.00    +0.000 OA
ATOM     25  C   UNL     1       8.479   2.448   0.000  0.00  0.00    +0.000 A 
ATOM     26  C   UNL     1       7.766   2.033   0.000  0.00  0.00    +0.000 A 
ATOM     27  C   UNL     1       8.476   3.273   0.000  0.00  0.00    +0.000 A 
ATOM     28  C   UNL     1       7.050   2.443   0.000  0.00  0.00    +0.000 A 
ATOM     29  C   UNL     1       7.760   3.683   0.000  0.00  0.00    +0.000 A 
ATOM     30  C   UNL     1       7.047   3.268   0.000  0.00  0.00    +0.000 A 
ENDBRANCH  12  25
BRANCH   5  31
ATOM     31  O   UNL     1      10.667  -1.301   0.000  0.00  0.00    +0.000 OA
BRANCH  31  39
ATOM     32  O   UNL     1       9.238  -1.301   0.000  0.00  0.00    +0.000 OA
ATOM     33  O   UNL     1       9.238  -3.776   0.000  0.00  0.00    +0.000 OA
ATOM     34  O   UNL     1      10.667  -2.951   0.000  0.00  0.00    +0.000 OA
ATOM     35  O   UNL     1       7.809  -2.951   0.000  0.00  0.00    +0.000 OA
ATOM     36  C   UNL     1       9.238  -2.951   0.000  0.00  0.00    +0.000 C 
ATOM     37  C   UNL     1       9.952  -2.539   0.000  0.00  0.00    +0.000 C 
ATOM     38  C   UNL     1       8.523  -2.539   0.000  0.00  0.00    +0.000 C 
ATOM     39  C   UNL     1       9.952  -1.714   0.000  0.00  0.00    +0.000 C 
ATOM     40  C   UNL     1       8.523  -1.714   0.000  0.00  0.00    +0.000 C 
BRANCH  40  41
ATOM     41  C   UNL     1       7.809  -1.301   0.000  0.00  0.00    +0.000 C 
BRANCH  41  42
ATOM     42  O   UNL     1       7.094  -1.714   0.000  0.00  0.00    +0.000 OA
BRANCH  42  44
ATOM     43  O   UNL     1       6.380  -0.476   0.000  0.00  0.00    +0.000 OA
ATOM     44  C   UNL     1       6.380  -1.301   0.000  0.00  0.00    +0.000 C 
BRANCH  44  45
ATOM     45  C   UNL     1       5.665  -1.714   0.000  0.00  0.00    +0.000 C 
ATOM     46  C   UNL     1       4.951  -1.301   0.000  0.00  0.00    +0.000 C 
BRANCH  46  48
ATOM     47  O   UNL     1       2.093  -2.951   0.000  0.00  0.00    +0.000 OA
ATOM     48  C   UNL     1       4.236  -1.714   0.000  0.00  0.00    +0.000 A 
ATOM     49  C   UNL     1       3.522  -1.301   0.000  0.00  0.00    +0.000 A 
ATOM     50  C   UNL     1       4.236  -2.539   0.000  0.00  0.00    +0.000 A 
ATOM     51  C   UNL     1       3.522  -2.951   0.000  0.00  0.00    +0.000 A 
ATOM     52  C   UNL     1       2.808  -1.714   0.000  0.00  0.00    +0.000 A 
ATOM     53  C   UNL     1       2.808  -2.539   0.000  0.00  0.00    +0.000 A 
BRANCH  51  54
ATOM     54  O   UNL     1       3.522  -3.776   0.000  0.00  0.00    +0.000 OA
ATOM     55  C   UNL     1       2.808  -4.189   0.000  0.00  0.00    +0.000 C 
ENDBRANCH  51  54
BRANCH  52  56
ATOM     56  O   UNL     1       2.093  -1.301   0.000  0.00  0.00    +0.000 OA
ATOM     57  C   UNL     1       2.093  -0.476   0.000  0.00  0.00    +0.000 C 
ENDBRANCH  52  56
ENDBRANCH  46  48
ENDBRANCH  44  45
ENDBRANCH  42  44
ENDBRANCH  41  42
ENDBRANCH  40  41
ENDBRANCH  31  39
ENDBRANCH   5  31
TORSDOF 12
