REMARK  Name = 131832278
REMARK  8 active torsions:
REMARK  status: ('A' for Active; 'I' for Inactive)
REMARK    1  A    between atoms: O_3  and  C_20
REMARK    2  A    between atoms: O_3  and  C_32
REMARK    3  A    between atoms: O_9  and  C_28
REMARK    4  A    between atoms: C_19  and  C_29
REMARK    5  A    between atoms: C_26  and  C_30
REMARK    6  A    between atoms: C_30  and  C_31
REMARK    7  A    between atoms: C_31  and  C_33
REMARK    8  A    between atoms: C_33  and  C_34
REMARK                            x       y       z     vdW  Elec       q    Type
REMARK                         _______ _______ _______ _____ _____    ______ ____
ROOT
ATOM      1  C   UNL     1       5.665   0.684   0.000  0.00  0.00    +0.000 C 
ENDROOT
BRANCH   1   3
ATOM      2  C   UNL     1       5.665  -1.791   0.000  0.00  0.00    +0.000 A 
ATOM      3  C   UNL     1       5.665  -0.141   0.000  0.00  0.00    +0.000 A 
ATOM      4  C   UNL     1       6.380  -1.378   0.000  0.00  0.00    +0.000 A 
ATOM      5  C   UNL     1       4.951  -1.378   0.000  0.00  0.00    +0.000 A 
ATOM      6  C   UNL     1       6.380  -0.553   0.000  0.00  0.00    +0.000 A 
ATOM      7  C   UNL     1       4.951  -0.553   0.000  0.00  0.00    +0.000 A 
BRANCH   2   8
ATOM      8  O   UNL     1       5.665  -2.616   0.000  0.00  0.00    +0.000 OA
BRANCH   8  17
ATOM      9  O   UNL     1       4.236  -2.616   0.000  0.00  0.00    +0.000 OA
ATOM     10  O   UNL     1       4.236  -5.091   0.000  0.00  0.00    +0.000 OA
ATOM     11  O   UNL     1       2.808  -4.266   0.000  0.00  0.00    +0.000 OA
ATOM     12  O   UNL     1       5.665  -4.266   0.000  0.00  0.00    +0.000 OA
ATOM     13  C   UNL     1       4.236  -4.266   0.000  0.00  0.00    +0.000 C 
ATOM     14  C   UNL     1       3.522  -3.853   0.000  0.00  0.00    +0.000 C 
ATOM     15  C   UNL     1       4.951  -3.853   0.000  0.00  0.00    +0.000 C 
ATOM     16  C   UNL     1       3.522  -3.028   0.000  0.00  0.00    +0.000 C 
ATOM     17  C   UNL     1       4.951  -3.028   0.000  0.00  0.00    +0.000 C 
BRANCH  16  20
ATOM     18  O   UNL     1       2.093  -3.028   0.000  0.00  0.00    +0.000 OA
ATOM     19  O   UNL     1       2.808  -1.791   0.000  0.00  0.00    +0.000 OA
ATOM     20  C   UNL     1       2.808  -2.616   0.000  0.00  0.00    +0.000 C 
ENDBRANCH  16  20
ENDBRANCH   8  17
ENDBRANCH   2   8
ENDBRANCH   1   3
BRANCH   1  21
ATOM     21  C   UNL     1       6.380   1.097   0.000  0.00  0.00    +0.000 C 
BRANCH  21  23
ATOM     22  O   UNL     1       5.665   2.334   0.000  0.00  0.00    +0.000 OA
ATOM     23  C   UNL     1       6.380   1.922   0.000  0.00  0.00    +0.000 C 
BRANCH  23  35
ATOM     24  O   UNL     1       9.274   3.577   0.000  0.00  0.00    +0.000 OA
ATOM     25  O   UNL     1       7.076   4.835   0.000  0.00  0.00    +0.000 OA
ATOM     26  O   UNL     1       6.380   3.572   0.000  0.00  0.00    +0.000 OA
ATOM     27  C   UNL     1       9.281   4.437   0.000  0.00  0.00    +0.000 C 
ATOM     28  C   UNL     1       8.536   4.866   0.000  0.00  0.00    +0.000 C 
ATOM     29  C   UNL     1       7.795   4.431   0.000  0.00  0.00    +0.000 C 
ATOM     30  C   UNL     1       7.809   3.572   0.000  0.00  0.00    +0.000 A 
ATOM     31  C   UNL     1       8.523   3.159   0.000  0.00  0.00    +0.000 A 
ATOM     32  C   UNL     1       9.696   5.149   0.000  0.00  0.00    +0.000 C 
ATOM     33  C   UNL     1      10.106   4.434   0.000  0.00  0.00    +0.000 C 
ATOM     34  C   UNL     1       7.094   3.159   0.000  0.00  0.00    +0.000 A 
ATOM     35  C   UNL     1       7.094   2.334   0.000  0.00  0.00    +0.000 A 
ATOM     36  C   UNL     1       8.523   2.334   0.000  0.00  0.00    +0.000 A 
ATOM     37  C   UNL     1       7.809   1.922   0.000  0.00  0.00    +0.000 A 
BRANCH  37  38
ATOM     38  O   UNL     1       7.809   1.097   0.000  0.00  0.00    +0.000 OA
ATOM     39  C   UNL     1       8.523   0.684   0.000  0.00  0.00    +0.000 C 
ENDBRANCH  37  38
ENDBRANCH  23  35
ENDBRANCH  21  23
ENDBRANCH   1  21
TORSDOF 8
