REMARK  Name = 44257784
REMARK  11 active torsions:
REMARK  status: ('A' for Active; 'I' for Inactive)
REMARK    1  A    between atoms: O_3  and  C_28
REMARK    2  A    between atoms: O_3  and  C_30
REMARK    3  A    between atoms: O_12  and  C_33
REMARK    4  A    between atoms: O_12  and  C_40
REMARK    5  A    between atoms: O_17  and  C_52
REMARK    6  A    between atoms: C_19  and  C_24
REMARK    7  A    between atoms: C_23  and  C_31
REMARK    8  A    between atoms: C_29  and  C_33
REMARK    9  A    between atoms: C_39  and  C_41
REMARK   10  A    between atoms: C_40  and  C_42
REMARK   11  A    between atoms: C_47  and  C_49
REMARK                            x       y       z     vdW  Elec       q    Type
REMARK                         _______ _______ _______ _____ _____    ______ ____
ROOT
ATOM      1  O   UNL     1      11.653   1.095   0.000  0.00  0.00    +0.000 OA
ATOM      2  O   UNL     1       8.758   1.101   0.000  0.00  0.00    +0.000 OA
ATOM      3  O   UNL     1      10.956   2.359   0.000  0.00  0.00    +0.000 OA
ATOM      4  C   UNL     1      10.938  -0.142   0.000  0.00  0.00    +0.000 A 
ATOM      5  C   UNL     1      10.224  -0.555   0.000  0.00  0.00    +0.000 A 
ATOM      6  C   UNL     1      10.938   0.683   0.000  0.00  0.00    +0.000 A 
ATOM      7  C   UNL     1       9.509  -0.142   0.000  0.00  0.00    +0.000 A 
ATOM      8  C   UNL     1      10.224   1.095   0.000  0.00  0.00    +0.000 A 
ATOM      9  C   UNL     1       9.509   0.683   0.000  0.00  0.00    +0.000 A 
ATOM     10  C   UNL     1      10.237   1.954   0.000  0.00  0.00    +0.000 A 
ATOM     11  C   UNL     1       9.496   2.390   0.000  0.00  0.00    +0.000 A 
ATOM     12  C   UNL     1       8.752   1.960   0.000  0.00  0.00    +0.000 A 
ENDROOT
BRANCH   4  17
ATOM     13  O   UNL     1      12.367  -0.142   0.000  0.00  0.00    +0.000 OA
ATOM     14  O   UNL     1      10.938  -1.792   0.000  0.00  0.00    +0.000 OA
ATOM     15  O   UNL     1      12.367  -2.617   0.000  0.00  0.00    +0.000 OA
ATOM     16  O   UNL     1      13.796  -1.792   0.000  0.00  0.00    +0.000 OA
ATOM     17  C   UNL     1      11.653  -0.555   0.000  0.00  0.00    +0.000 C 
ATOM     18  C   UNL     1      11.653  -1.380   0.000  0.00  0.00    +0.000 C 
ATOM     19  C   UNL     1      12.367  -1.792   0.000  0.00  0.00    +0.000 C 
ATOM     20  C   UNL     1      13.082  -1.380   0.000  0.00  0.00    +0.000 C 
ATOM     21  C   UNL     1      13.082  -0.555   0.000  0.00  0.00    +0.000 C 
BRANCH  21  23
ATOM     22  O   UNL     1      14.511  -0.555   0.000  0.00  0.00    +0.000 OA
ATOM     23  C   UNL     1      13.796  -0.142   0.000  0.00  0.00    +0.000 C 
ENDBRANCH  21  23
ENDBRANCH   4  17
BRANCH  12  25
ATOM     24  O   UNL     1       5.888   3.599   0.000  0.00  0.00    +0.000 OA
ATOM     25  C   UNL     1       8.036   2.370   0.000  0.00  0.00    +0.000 A 
ATOM     26  C   UNL     1       7.323   1.955   0.000  0.00  0.00    +0.000 A 
ATOM     27  C   UNL     1       8.033   3.195   0.000  0.00  0.00    +0.000 A 
ATOM     28  C   UNL     1       6.607   2.364   0.000  0.00  0.00    +0.000 A 
ATOM     29  C   UNL     1       7.316   3.605   0.000  0.00  0.00    +0.000 A 
ATOM     30  C   UNL     1       6.604   3.189   0.000  0.00  0.00    +0.000 A 
ENDBRANCH  12  25
BRANCH   5  31
ATOM     31  O   UNL     1      10.224  -1.380   0.000  0.00  0.00    +0.000 OA
BRANCH  31  39
ATOM     32  O   UNL     1       8.795  -1.380   0.000  0.00  0.00    +0.000 OA
ATOM     33  O   UNL     1       8.795  -3.855   0.000  0.00  0.00    +0.000 OA
ATOM     34  O   UNL     1      10.224  -3.030   0.000  0.00  0.00    +0.000 OA
ATOM     35  O   UNL     1       7.366  -3.030   0.000  0.00  0.00    +0.000 OA
ATOM     36  C   UNL     1       8.795  -3.030   0.000  0.00  0.00    +0.000 C 
ATOM     37  C   UNL     1       9.509  -2.617   0.000  0.00  0.00    +0.000 C 
ATOM     38  C   UNL     1       8.080  -2.617   0.000  0.00  0.00    +0.000 C 
ATOM     39  C   UNL     1       9.509  -1.792   0.000  0.00  0.00    +0.000 C 
ATOM     40  C   UNL     1       8.080  -1.792   0.000  0.00  0.00    +0.000 C 
BRANCH  40  41
ATOM     41  C   UNL     1       7.366  -1.380   0.000  0.00  0.00    +0.000 C 
BRANCH  41  42
ATOM     42  O   UNL     1       6.651  -1.792   0.000  0.00  0.00    +0.000 OA
BRANCH  42  44
ATOM     43  O   UNL     1       5.937  -0.555   0.000  0.00  0.00    +0.000 OA
ATOM     44  C   UNL     1       5.937  -1.380   0.000  0.00  0.00    +0.000 C 
BRANCH  44  45
ATOM     45  C   UNL     1       5.222  -1.792   0.000  0.00  0.00    +0.000 C 
ATOM     46  C   UNL     1       4.508  -1.380   0.000  0.00  0.00    +0.000 C 
BRANCH  46  48
ATOM     47  O   UNL     1       1.650  -3.030   0.000  0.00  0.00    +0.000 OA
ATOM     48  C   UNL     1       3.793  -1.792   0.000  0.00  0.00    +0.000 A 
ATOM     49  C   UNL     1       3.079  -1.380   0.000  0.00  0.00    +0.000 A 
ATOM     50  C   UNL     1       3.793  -2.617   0.000  0.00  0.00    +0.000 A 
ATOM     51  C   UNL     1       2.364  -1.792   0.000  0.00  0.00    +0.000 A 
ATOM     52  C   UNL     1       3.079  -3.030   0.000  0.00  0.00    +0.000 A 
ATOM     53  C   UNL     1       2.364  -2.617   0.000  0.00  0.00    +0.000 A 
BRANCH  51  54
ATOM     54  O   UNL     1       1.650  -1.380   0.000  0.00  0.00    +0.000 OA
ATOM     55  C   UNL     1       1.650  -0.555   0.000  0.00  0.00    +0.000 C 
ENDBRANCH  51  54
ENDBRANCH  46  48
ENDBRANCH  44  45
ENDBRANCH  42  44
ENDBRANCH  41  42
ENDBRANCH  40  41
ENDBRANCH  31  39
ENDBRANCH   5  31
TORSDOF 11
