REMARK  Name = 44259753
REMARK  5 active torsions:
REMARK  status: ('A' for Active; 'I' for Inactive)
REMARK    1  A    between atoms: O_2  and  C_16
REMARK    2  A    between atoms: O_2  and  C_18
REMARK    3  A    between atoms: O_7  and  C_20
REMARK    4  A    between atoms: O_8  and  C_22
REMARK    5  A    between atoms: C_26  and  C_27
REMARK                            x       y       z     vdW  Elec       q    Type
REMARK                         _______ _______ _______ _____ _____    ______ ____
ROOT
ATOM      1  O   UNL     1       6.422   1.755   0.000  0.00  0.00    +0.000 OA
ATOM      2  O   UNL     1       6.394  -0.720   0.000  0.00  0.00    +0.000 OA
ATOM      3  O   UNL     1       7.832   0.088   0.000  0.00  0.00    +0.000 OA
ATOM      4  C   UNL     1       4.951   0.093   0.000  0.00  0.00    +0.000 A 
ATOM      5  C   UNL     1       5.693   0.526   0.000  0.00  0.00    +0.000 A 
ATOM      6  C   UNL     1       4.208   0.526   0.000  0.00  0.00    +0.000 A 
ATOM      7  C   UNL     1       5.703   1.351   0.000  0.00  0.00    +0.000 A 
ATOM      8  C   UNL     1       4.218   1.385   0.000  0.00  0.00    +0.000 A 
ATOM      9  C   UNL     1       6.403   0.105   0.000  0.00  0.00    +0.000 A 
ATOM     10  C   UNL     1       4.971   1.800   0.000  0.00  0.00    +0.000 A 
ATOM     11  C   UNL     1       7.122   0.509   0.000  0.00  0.00    +0.000 A 
ATOM     12  C   UNL     1       7.132   1.334   0.000  0.00  0.00    +0.000 A 
ENDROOT
BRANCH  12  14
ATOM     13  O   UNL     1      10.009   2.951   0.000  0.00  0.00    +0.000 OA
ATOM     14  C   UNL     1       7.851   1.738   0.000  0.00  0.00    +0.000 A 
ATOM     15  C   UNL     1       7.861   2.563   0.000  0.00  0.00    +0.000 A 
ATOM     16  C   UNL     1       8.561   1.318   0.000  0.00  0.00    +0.000 A 
ATOM     17  C   UNL     1       8.580   2.967   0.000  0.00  0.00    +0.000 A 
ATOM     18  C   UNL     1       9.280   1.722   0.000  0.00  0.00    +0.000 A 
ATOM     19  C   UNL     1       9.289   2.547   0.000  0.00  0.00    +0.000 A 
ENDBRANCH  12  14
BRANCH   6  20
ATOM     20  O   UNL     1       3.491   0.119   0.000  0.00  0.00    +0.000 OA
ATOM     21  C   UNL     1       2.779   0.537   0.000  0.00  0.00    +0.000 C 
ENDBRANCH   6  20
BRANCH   8  22
ATOM     22  O   UNL     1       3.510   1.809   0.000  0.00  0.00    +0.000 OA
ATOM     23  C   UNL     1       3.523   2.633   0.000  0.00  0.00    +0.000 C 
ENDBRANCH   8  22
BRANCH   4  24
ATOM     24  O   UNL     1       4.951  -0.732   0.000  0.00  0.00    +0.000 OA
BRANCH  24  33
ATOM     25  O   UNL     1       3.522  -0.732   0.000  0.00  0.00    +0.000 OA
ATOM     26  O   UNL     1       3.522  -3.207   0.000  0.00  0.00    +0.000 OA
ATOM     27  O   UNL     1       2.093  -2.382   0.000  0.00  0.00    +0.000 OA
ATOM     28  O   UNL     1       4.951  -2.382   0.000  0.00  0.00    +0.000 OA
ATOM     29  C   UNL     1       3.522  -2.382   0.000  0.00  0.00    +0.000 C 
ATOM     30  C   UNL     1       2.808  -1.969   0.000  0.00  0.00    +0.000 C 
ATOM     31  C   UNL     1       4.236  -1.969   0.000  0.00  0.00    +0.000 C 
ATOM     32  C   UNL     1       2.808  -1.144   0.000  0.00  0.00    +0.000 C 
ATOM     33  C   UNL     1       4.236  -1.144   0.000  0.00  0.00    +0.000 C 
ATOM     34  C   UNL     1       2.093  -0.732   0.000  0.00  0.00    +0.000 C 
ENDBRANCH  24  33
ENDBRANCH   4  24
TORSDOF 5
