REMARK  Name = 14524443
REMARK  7 active torsions:
REMARK  status: ('A' for Active; 'I' for Inactive)
REMARK    1  A    between atoms: O_2  and  C_15
REMARK    2  A    between atoms: O_2  and  C_17
REMARK    3  A    between atoms: O_7  and  C_21
REMARK    4  A    between atoms: C_14  and  C_16
REMARK    5  A    between atoms: C_18  and  C_23
REMARK    6  A    between atoms: C_23  and  C_24
REMARK    7  A    between atoms: C_25  and  C_27
REMARK                            x       y       z     vdW  Elec       q    Type
REMARK                         _______ _______ _______ _____ _____    ______ ____
ROOT
ATOM      1  O   UNL     1       7.094   2.190   0.000  0.00  0.00    +0.000 OA
ATOM      2  C   UNL     1       5.665   0.540   0.000  0.00  0.00    +0.000 A 
ATOM      3  C   UNL     1       6.380   0.953   0.000  0.00  0.00    +0.000 A 
ATOM      4  C   UNL     1       4.951   0.953   0.000  0.00  0.00    +0.000 A 
ATOM      5  C   UNL     1       6.380   1.778   0.000  0.00  0.00    +0.000 A 
ATOM      6  C   UNL     1       4.951   1.778   0.000  0.00  0.00    +0.000 A 
ATOM      7  C   UNL     1       5.665   2.190   0.000  0.00  0.00    +0.000 A 
ENDROOT
BRANCH   6   8
ATOM      8  O   UNL     1       4.237   2.190   0.000  0.00  0.00    +0.000 OA
ATOM      9  C   UNL     1       4.237   3.015   0.000  0.00  0.00    +0.000 C 
ENDBRANCH   6   8
BRANCH   3  11
ATOM     10  O   UNL     1       7.094  -0.285   0.000  0.00  0.00    +0.000 OA
ATOM     11  C   UNL     1       7.094   0.540   0.000  0.00  0.00    +0.000 C 
BRANCH  11  12
ATOM     12  C   UNL     1       7.809   0.953   0.000  0.00  0.00    +0.000 C 
ATOM     13  C   UNL     1       8.523   0.540   0.000  0.00  0.00    +0.000 C 
BRANCH  13  15
ATOM     14  O   UNL     1      11.381   2.190   0.000  0.00  0.00    +0.000 OA
ATOM     15  C   UNL     1       9.238   0.953   0.000  0.00  0.00    +0.000 A 
ATOM     16  C   UNL     1       9.238   1.778   0.000  0.00  0.00    +0.000 A 
ATOM     17  C   UNL     1       9.952   0.540   0.000  0.00  0.00    +0.000 A 
ATOM     18  C   UNL     1       9.952   2.190   0.000  0.00  0.00    +0.000 A 
ATOM     19  C   UNL     1      10.667   0.953   0.000  0.00  0.00    +0.000 A 
ATOM     20  C   UNL     1      10.667   1.778   0.000  0.00  0.00    +0.000 A 
ENDBRANCH  13  15
ENDBRANCH  11  12
ENDBRANCH   3  11
BRANCH   2  21
ATOM     21  O   UNL     1       5.665  -0.285   0.000  0.00  0.00    +0.000 OA
BRANCH  21  30
ATOM     22  O   UNL     1       4.237  -0.285   0.000  0.00  0.00    +0.000 OA
ATOM     23  O   UNL     1       4.237  -2.760   0.000  0.00  0.00    +0.000 OA
ATOM     24  O   UNL     1       2.808  -1.935   0.000  0.00  0.00    +0.000 OA
ATOM     25  O   UNL     1       5.665  -1.935   0.000  0.00  0.00    +0.000 OA
ATOM     26  C   UNL     1       4.237  -1.935   0.000  0.00  0.00    +0.000 C 
ATOM     27  C   UNL     1       3.522  -1.522   0.000  0.00  0.00    +0.000 C 
ATOM     28  C   UNL     1       4.951  -1.522   0.000  0.00  0.00    +0.000 C 
ATOM     29  C   UNL     1       3.522  -0.697   0.000  0.00  0.00    +0.000 C 
ATOM     30  C   UNL     1       4.951  -0.697   0.000  0.00  0.00    +0.000 C 
BRANCH  29  32
ATOM     31  O   UNL     1       2.093  -0.697   0.000  0.00  0.00    +0.000 OA
ATOM     32  C   UNL     1       2.808  -0.285   0.000  0.00  0.00    +0.000 C 
ENDBRANCH  29  32
ENDBRANCH  21  30
ENDBRANCH   2  21
TORSDOF 7
