REMARK  Name = 5465153
REMARK  7 active torsions:
REMARK  status: ('A' for Active; 'I' for Inactive)
REMARK    1  A    between atoms: O_1  and  C_16
REMARK    2  A    between atoms: O_1  and  C_20
REMARK    3  A    between atoms: O_5  and  C_22
REMARK    4  A    between atoms: O_5  and  C_27
REMARK    5  A    between atoms: C_17  and  C_25
REMARK    6  A    between atoms: C_23  and  C_26
REMARK    7  A    between atoms: C_28  and  C_31
REMARK                            x       y       z     vdW  Elec       q    Type
REMARK                         _______ _______ _______ _____ _____    ______ ____
ROOT
ATOM      1  O   UNL     1       5.665   0.321   0.000  0.00  0.00    +0.000 OA
ENDROOT
BRANCH   1   6
ATOM      2  O   UNL     1       6.380   2.383   0.000  0.00  0.00    +0.000 OA
ATOM      3  O   UNL     1       4.236   1.146   0.000  0.00  0.00    +0.000 OA
ATOM      4  O   UNL     1       3.490   2.381   0.000  0.00  0.00    +0.000 OA
ATOM      5  O   UNL     1       4.941   4.915   0.000  0.00  0.00    +0.000 OA
ATOM      6  C   UNL     1       5.665   1.146   0.000  0.00  0.00    +0.000 A 
ATOM      7  C   UNL     1       6.380   1.558   0.000  0.00  0.00    +0.000 A 
ATOM      8  C   UNL     1       4.951   1.558   0.000  0.00  0.00    +0.000 A 
ATOM      9  C   UNL     1       4.951   2.383   0.000  0.00  0.00    +0.000 A 
ATOM     10  C   UNL     1       5.665   2.796   0.000  0.00  0.00    +0.000 A 
ATOM     11  C   UNL     1       4.200   2.801   0.000  0.00  0.00    +0.000 A 
ATOM     12  C   UNL     1       5.679   3.655   0.000  0.00  0.00    +0.000 A 
ATOM     13  C   UNL     1       4.194   3.661   0.000  0.00  0.00    +0.000 A 
ATOM     14  C   UNL     1       4.938   4.090   0.000  0.00  0.00    +0.000 A 
BRANCH   7  16
ATOM     15  O   UNL     1       9.238  -0.092   0.000  0.00  0.00    +0.000 OA
ATOM     16  C   UNL     1       7.094   1.146   0.000  0.00  0.00    +0.000 A 
ATOM     17  C   UNL     1       7.094   0.321   0.000  0.00  0.00    +0.000 A 
ATOM     18  C   UNL     1       7.809   1.558   0.000  0.00  0.00    +0.000 A 
ATOM     19  C   UNL     1       7.809  -0.092   0.000  0.00  0.00    +0.000 A 
ATOM     20  C   UNL     1       8.523   1.146   0.000  0.00  0.00    +0.000 A 
ATOM     21  C   UNL     1       8.523   0.321   0.000  0.00  0.00    +0.000 A 
ENDBRANCH   7  16
ENDBRANCH   1   6
BRANCH   1  28
ATOM     22  O   UNL     1       4.236   0.321   0.000  0.00  0.00    +0.000 OA
ATOM     23  O   UNL     1       4.236  -2.154   0.000  0.00  0.00    +0.000 OA
ATOM     24  O   UNL     1       2.808  -1.329   0.000  0.00  0.00    +0.000 OA
ATOM     25  C   UNL     1       4.951  -0.917   0.000  0.00  0.00    +0.000 C 
ATOM     26  C   UNL     1       4.236  -1.329   0.000  0.00  0.00    +0.000 C 
ATOM     27  C   UNL     1       3.522  -0.917   0.000  0.00  0.00    +0.000 C 
ATOM     28  C   UNL     1       4.951  -0.092   0.000  0.00  0.00    +0.000 C 
ATOM     29  C   UNL     1       3.522  -0.092   0.000  0.00  0.00    +0.000 C 
BRANCH  29  31
ATOM     30  O   UNL     1       2.093  -0.092   0.000  0.00  0.00    +0.000 OA
ATOM     31  C   UNL     1       2.808   0.321   0.000  0.00  0.00    +0.000 C 
ENDBRANCH  29  31
BRANCH  25  32
ATOM     32  O   UNL     1       5.665  -1.329   0.000  0.00  0.00    +0.000 OA
BRANCH  32  38
ATOM     33  O   UNL     1       4.998  -2.639   0.000  0.00  0.00    +0.000 OA
ATOM     34  O   UNL     1       6.862  -3.679   0.000  0.00  0.00    +0.000 OA
ATOM     35  O   UNL     1       7.117  -2.384   0.000  0.00  0.00    +0.000 OA
ATOM     36  C   UNL     1       6.078  -3.424   0.000  0.00  0.00    +0.000 C 
ATOM     37  C   UNL     1       6.333  -2.639   0.000  0.00  0.00    +0.000 C 
ATOM     38  C   UNL     1       5.665  -2.154   0.000  0.00  0.00    +0.000 C 
ATOM     39  C   UNL     1       5.253  -3.424   0.000  0.00  0.00    +0.000 C 
BRANCH  36  41
ATOM     40  O   UNL     1       5.363  -4.661   0.000  0.00  0.00    +0.000 OA
ATOM     41  C   UNL     1       6.078  -4.249   0.000  0.00  0.00    +0.000 C 
ENDBRANCH  36  41
ENDBRANCH  32  38
ENDBRANCH  25  32
ENDBRANCH   1  28
TORSDOF 7
