REMARK  Name = 73829996
REMARK  5 active torsions:
REMARK  status: ('A' for Active; 'I' for Inactive)
REMARK    1  A    between atoms: O_1  and  C_16
REMARK    2  A    between atoms: O_1  and  C_17
REMARK    3  A    between atoms: O_6  and  C_23
REMARK    4  A    between atoms: O_6  and  C_27
REMARK    5  A    between atoms: C_28  and  C_32
REMARK                            x       y       z     vdW  Elec       q    Type
REMARK                         _______ _______ _______ _____ _____    ______ ____
ROOT
ATOM      1  O   UNL     1       8.523   0.472   0.000  0.00  0.00    +0.000 OA
ATOM      2  O   UNL     1       6.380   1.710   0.000  0.00  0.00    +0.000 OA
ATOM      3  O   UNL     1       7.076   2.973   0.000  0.00  0.00    +0.000 OA
ATOM      4  O   UNL     1       9.997   2.985   0.000  0.00  0.00    +0.000 OA
ATOM      5  C   UNL     1       7.094   0.472   0.000  0.00  0.00    +0.000 A 
ATOM      6  C   UNL     1       7.809   0.060   0.000  0.00  0.00    +0.000 A 
ATOM      7  C   UNL     1       7.094   1.297   0.000  0.00  0.00    +0.000 A 
ATOM      8  C   UNL     1       7.809   1.710   0.000  0.00  0.00    +0.000 A 
ATOM      9  C   UNL     1       8.523   1.297   0.000  0.00  0.00    +0.000 A 
ATOM     10  C   UNL     1       7.795   2.569   0.000  0.00  0.00    +0.000 A 
ATOM     11  C   UNL     1       9.274   1.715   0.000  0.00  0.00    +0.000 A 
ATOM     12  C   UNL     1       8.536   3.004   0.000  0.00  0.00    +0.000 A 
ATOM     13  C   UNL     1       9.281   2.575   0.000  0.00  0.00    +0.000 A 
ENDROOT
BRANCH   6  16
ATOM     14  O   UNL     1       9.238  -2.415   0.000  0.00  0.00    +0.000 OA
ATOM     15  O   UNL     1       7.809  -3.240   0.000  0.00  0.00    +0.000 OA
ATOM     16  C   UNL     1       7.809  -0.765   0.000  0.00  0.00    +0.000 A 
ATOM     17  C   UNL     1       8.523  -1.178   0.000  0.00  0.00    +0.000 A 
ATOM     18  C   UNL     1       7.094  -1.178   0.000  0.00  0.00    +0.000 A 
ATOM     19  C   UNL     1       8.523  -2.003   0.000  0.00  0.00    +0.000 A 
ATOM     20  C   UNL     1       7.094  -2.003   0.000  0.00  0.00    +0.000 A 
ATOM     21  C   UNL     1       7.809  -2.415   0.000  0.00  0.00    +0.000 A 
ENDBRANCH   6  16
BRANCH   5  22
ATOM     22  O   UNL     1       6.380   0.060   0.000  0.00  0.00    +0.000 OA
BRANCH  22  28
ATOM     23  O   UNL     1       5.665   1.297   0.000  0.00  0.00    +0.000 OA
ATOM     24  O   UNL     1       3.522   0.060   0.000  0.00  0.00    +0.000 OA
ATOM     25  O   UNL     1       3.522   1.710   0.000  0.00  0.00    +0.000 OA
ATOM     26  C   UNL     1       4.951   0.060   0.000  0.00  0.00    +0.000 C 
ATOM     27  C   UNL     1       4.236   0.472   0.000  0.00  0.00    +0.000 C 
ATOM     28  C   UNL     1       5.665   0.472   0.000  0.00  0.00    +0.000 C 
ATOM     29  C   UNL     1       4.236   1.297   0.000  0.00  0.00    +0.000 C 
ATOM     30  C   UNL     1       4.951   1.710   0.000  0.00  0.00    +0.000 C 
BRANCH  26  31
ATOM     31  O   UNL     1       4.951  -0.765   0.000  0.00  0.00    +0.000 OA
BRANCH  31  36
ATOM     32  O   UNL     1       3.522  -0.765   0.000  0.00  0.00    +0.000 OA
ATOM     33  O   UNL     1       4.951  -2.415   0.000  0.00  0.00    +0.000 OA
ATOM     34  O   UNL     1       3.522  -3.240   0.000  0.00  0.00    +0.000 OA
ATOM     35  O   UNL     1       2.093  -2.415   0.000  0.00  0.00    +0.000 OA
ATOM     36  C   UNL     1       4.236  -1.178   0.000  0.00  0.00    +0.000 C 
ATOM     37  C   UNL     1       4.236  -2.003   0.000  0.00  0.00    +0.000 C 
ATOM     38  C   UNL     1       3.522  -2.415   0.000  0.00  0.00    +0.000 C 
ATOM     39  C   UNL     1       2.808  -2.003   0.000  0.00  0.00    +0.000 C 
ATOM     40  C   UNL     1       2.808  -1.178   0.000  0.00  0.00    +0.000 C 
ATOM     41  C   UNL     1       2.093  -0.765   0.000  0.00  0.00    +0.000 C 
ENDBRANCH  31  36
ENDBRANCH  26  31
ENDBRANCH  22  28
ENDBRANCH   5  22
TORSDOF 5
