REMARK  Name = 5318368
REMARK  4 active torsions:
REMARK  status: ('A' for Active; 'I' for Inactive)
REMARK    1  A    between atoms: O_2  and  C_10
REMARK    2  A    between atoms: O_3  and  C_15
REMARK    3  A    between atoms: O_6  and  C_21
REMARK    4  A    between atoms: C_9  and  C_13
REMARK                            x       y       z     vdW  Elec       q    Type
REMARK                         _______ _______ _______ _____ _____    ______ ____
ROOT
ATOM      1  O   UNL     1       5.245  -0.840   0.000  0.00  0.00    +0.000 OA
ATOM      2  O   UNL     1       3.793  -1.636   0.000  0.00  0.00    +0.000 OA
ATOM      3  O   UNL     1       5.236   1.693   0.000  0.00  0.00    +0.000 OA
ATOM      4  C   UNL     1       4.508   0.427   0.000  0.00  0.00    +0.000 A 
ATOM      5  C   UNL     1       4.508  -0.398   0.000  0.00  0.00    +0.000 A 
ATOM      6  C   UNL     1       5.993  -0.415   0.000  0.00  0.00    +0.000 A 
ATOM      7  C   UNL     1       3.793   0.839   0.000  0.00  0.00    +0.000 A 
ATOM      8  C   UNL     1       3.793  -0.811   0.000  0.00  0.00    +0.000 A 
ATOM      9  C   UNL     1       5.245   0.868   0.000  0.00  0.00    +0.000 A 
ATOM     10  C   UNL     1       5.993   0.444   0.000  0.00  0.00    +0.000 A 
ATOM     11  C   UNL     1       3.079  -0.398   0.000  0.00  0.00    +0.000 A 
ATOM     12  C   UNL     1       3.079   0.427   0.000  0.00  0.00    +0.000 A 
ENDROOT
BRANCH   6  13
ATOM     13  C   UNL     1       6.706  -0.831   0.000  0.00  0.00    +0.000 A 
ATOM     14  C   UNL     1       7.422  -0.421   0.000  0.00  0.00    +0.000 A 
ATOM     15  C   UNL     1       6.702  -1.656   0.000  0.00  0.00    +0.000 A 
ATOM     16  C   UNL     1       8.134  -0.836   0.000  0.00  0.00    +0.000 A 
ATOM     17  C   UNL     1       7.415  -2.071   0.000  0.00  0.00    +0.000 A 
ATOM     18  C   UNL     1       8.131  -1.661   0.000  0.00  0.00    +0.000 A 
BRANCH  18  19
ATOM     19  O   UNL     1       8.844  -2.077   0.000  0.00  0.00    +0.000 OA
ATOM     20  C   UNL     1       9.560  -1.667   0.000  0.00  0.00    +0.000 C 
ENDBRANCH  18  19
ENDBRANCH   6  13
BRANCH   7  21
ATOM     21  O   UNL     1       3.793   1.664   0.000  0.00  0.00    +0.000 OA
ATOM     22  C   UNL     1       3.079   2.077   0.000  0.00  0.00    +0.000 C 
ENDBRANCH   7  21
BRANCH  11  23
ATOM     23  O   UNL     1       2.364  -0.811   0.000  0.00  0.00    +0.000 OA
ATOM     24  C   UNL     1       1.650  -0.398   0.000  0.00  0.00    +0.000 C 
ENDBRANCH  11  23
TORSDOF 4
