REMARK  Name = 14353376
REMARK  4 active torsions:
REMARK  status: ('A' for Active; 'I' for Inactive)
REMARK    1  A    between atoms: O_2  and  C_10
REMARK    2  A    between atoms: O_3  and  C_14
REMARK    3  A    between atoms: O_6  and  C_21
REMARK    4  A    between atoms: C_9  and  C_13
REMARK                            x       y       z     vdW  Elec       q    Type
REMARK                         _______ _______ _______ _____ _____    ______ ____
ROOT
ATOM      1  O   UNL     1       5.245  -0.761   0.000  0.00  0.00    +0.000 OA
ATOM      2  O   UNL     1       3.793   1.742   0.000  0.00  0.00    +0.000 OA
ATOM      3  O   UNL     1       5.236   1.771   0.000  0.00  0.00    +0.000 OA
ATOM      4  C   UNL     1       4.508   0.505   0.000  0.00  0.00    +0.000 A 
ATOM      5  C   UNL     1       4.508  -0.320   0.000  0.00  0.00    +0.000 A 
ATOM      6  C   UNL     1       5.993  -0.337   0.000  0.00  0.00    +0.000 A 
ATOM      7  C   UNL     1       3.793  -0.733   0.000  0.00  0.00    +0.000 A 
ATOM      8  C   UNL     1       3.793   0.917   0.000  0.00  0.00    +0.000 A 
ATOM      9  C   UNL     1       5.245   0.946   0.000  0.00  0.00    +0.000 A 
ATOM     10  C   UNL     1       3.079  -0.320   0.000  0.00  0.00    +0.000 A 
ATOM     11  C   UNL     1       5.993   0.522   0.000  0.00  0.00    +0.000 A 
ATOM     12  C   UNL     1       3.079   0.505   0.000  0.00  0.00    +0.000 A 
ENDROOT
BRANCH   6  13
ATOM     13  C   UNL     1       6.706  -0.752   0.000  0.00  0.00    +0.000 A 
ATOM     14  C   UNL     1       7.422  -0.343   0.000  0.00  0.00    +0.000 A 
ATOM     15  C   UNL     1       6.702  -1.577   0.000  0.00  0.00    +0.000 A 
ATOM     16  C   UNL     1       8.134  -0.758   0.000  0.00  0.00    +0.000 A 
ATOM     17  C   UNL     1       7.415  -1.993   0.000  0.00  0.00    +0.000 A 
ATOM     18  C   UNL     1       8.131  -1.583   0.000  0.00  0.00    +0.000 A 
BRANCH  18  19
ATOM     19  O   UNL     1       8.844  -1.998   0.000  0.00  0.00    +0.000 OA
ATOM     20  C   UNL     1       9.560  -1.588   0.000  0.00  0.00    +0.000 C 
ENDBRANCH  18  19
ENDBRANCH   6  13
BRANCH   7  21
ATOM     21  O   UNL     1       3.793  -1.558   0.000  0.00  0.00    +0.000 OA
ATOM     22  C   UNL     1       3.079  -1.970   0.000  0.00  0.00    +0.000 C 
ENDBRANCH   7  21
BRANCH  10  23
ATOM     23  O   UNL     1       2.364  -0.733   0.000  0.00  0.00    +0.000 OA
ATOM     24  C   UNL     1       1.650  -0.320   0.000  0.00  0.00    +0.000 C 
ENDBRANCH  10  23
TORSDOF 4
