REMARK  Name = 5489501
REMARK  3 active torsions:
REMARK  status: ('A' for Active; 'I' for Inactive)
REMARK    1  A    between atoms: O_2  and  C_11
REMARK    2  A    between atoms: O_3  and  C_14
REMARK    3  A    between atoms: C_10  and  C_13
REMARK                            x       y       z     vdW  Elec       q    Type
REMARK                         _______ _______ _______ _____ _____    ______ ____
ROOT
ATOM      1  O   UNL     1       5.006  -0.303   0.000  0.00  0.00    +0.000 OA
ATOM      2  O   UNL     1       5.006   2.172   0.000  0.00  0.00    +0.000 OA
ATOM      3  O   UNL     1       2.094  -0.323   0.000  0.00  0.00    +0.000 OA
ATOM      4  C   UNL     1       4.292   0.934   0.000  0.00  0.00    +0.000 A 
ATOM      5  C   UNL     1       4.292   0.110   0.000  0.00  0.00    +0.000 A 
ATOM      6  C   UNL     1       5.721   0.110   0.000  0.00  0.00    +0.000 A 
ATOM      7  C   UNL     1       5.721   0.934   0.000  0.00  0.00    +0.000 A 
ATOM      8  C   UNL     1       5.006   1.347   0.000  0.00  0.00    +0.000 A 
ATOM      9  C   UNL     1       3.554   1.376   0.000  0.00  0.00    +0.000 A 
ATOM     10  C   UNL     1       3.554  -0.332   0.000  0.00  0.00    +0.000 A 
ATOM     11  C   UNL     1       2.807   0.952   0.000  0.00  0.00    +0.000 A 
ATOM     12  C   UNL     1       2.807   0.092   0.000  0.00  0.00    +0.000 A 
ENDROOT
BRANCH   6  15
ATOM     13  O   UNL     1       7.150  -2.365   0.000  0.00  0.00    +0.000 OA
ATOM     14  O   UNL     1       8.579  -1.540   0.000  0.00  0.00    +0.000 OA
ATOM     15  C   UNL     1       6.435  -0.303   0.000  0.00  0.00    +0.000 A 
ATOM     16  C   UNL     1       6.435  -1.128   0.000  0.00  0.00    +0.000 A 
ATOM     17  C   UNL     1       7.150   0.110   0.000  0.00  0.00    +0.000 A 
ATOM     18  C   UNL     1       7.150  -1.540   0.000  0.00  0.00    +0.000 A 
ATOM     19  C   UNL     1       7.864  -0.303   0.000  0.00  0.00    +0.000 A 
ATOM     20  C   UNL     1       7.864  -1.128   0.000  0.00  0.00    +0.000 A 
ENDBRANCH   6  15
BRANCH   7  21
ATOM     21  O   UNL     1       6.435   1.347   0.000  0.00  0.00    +0.000 OA
ATOM     22  C   UNL     1       6.435   2.172   0.000  0.00  0.00    +0.000 C 
ENDBRANCH   7  21
BRANCH   9  23
ATOM     23  O   UNL     1       3.564   2.200   0.000  0.00  0.00    +0.000 OA
ATOM     24  C   UNL     1       2.854   2.621   0.000  0.00  0.00    +0.000 C 
ENDBRANCH   9  23
TORSDOF 3
