REMARK  Name = 46881084
REMARK  2 active torsions:
REMARK  status: ('A' for Active; 'I' for Inactive)
REMARK    1  A    between atoms: O_4  and  C_13
REMARK    2  A    between atoms: C_8  and  C_9
REMARK                            x       y       z     vdW  Elec       q    Type
REMARK                         _______ _______ _______ _____ _____    ______ ____
ROOT
ATOM      1  O   UNL     1       4.562  -1.591   0.000  0.00  0.00    +0.000 OA
ATOM      2  O   UNL     1       4.562   0.884   0.000  0.00  0.00    +0.000 OA
ATOM      3  O   UNL     1       3.120   0.913   0.000  0.00  0.00    +0.000 OA
ATOM      4  O   UNL     1       1.650  -1.611   0.000  0.00  0.00    +0.000 OA
ATOM      5  C   UNL     1       5.277  -0.353   0.000  0.00  0.00    +0.000 C 
ATOM      6  C   UNL     1       5.277  -1.178   0.000  0.00  0.00    +0.000 C 
ATOM      7  C   UNL     1       4.562   0.059   0.000  0.00  0.00    +0.000 C 
ATOM      8  C   UNL     1       3.848  -0.353   0.000  0.00  0.00    +0.000 A 
ATOM      9  C   UNL     1       3.848  -1.178   0.000  0.00  0.00    +0.000 A 
ATOM     10  C   UNL     1       3.110   0.088   0.000  0.00  0.00    +0.000 A 
ATOM     11  C   UNL     1       3.110  -1.619   0.000  0.00  0.00    +0.000 A 
ATOM     12  C   UNL     1       2.363  -0.336   0.000  0.00  0.00    +0.000 A 
ATOM     13  C   UNL     1       2.363  -1.195   0.000  0.00  0.00    +0.000 A 
ENDROOT
BRANCH   5  16
ATOM     14  O   UNL     1       8.201  -0.192   0.000  0.00  0.00    +0.000 OA
ATOM     15  O   UNL     1       8.201   1.136   0.000  0.00  0.00    +0.000 OA
ATOM     16  C   UNL     1       5.991   0.059   0.000  0.00  0.00    +0.000 A 
ATOM     17  C   UNL     1       5.991   0.884   0.000  0.00  0.00    +0.000 A 
ATOM     18  C   UNL     1       6.706  -0.353   0.000  0.00  0.00    +0.000 A 
ATOM     19  C   UNL     1       7.420   0.059   0.000  0.00  0.00    +0.000 A 
ATOM     20  C   UNL     1       7.420   0.884   0.000  0.00  0.00    +0.000 A 
ATOM     21  C   UNL     1       6.706   1.297   0.000  0.00  0.00    +0.000 A 
ATOM     22  C   UNL     1       8.682   0.472   0.000  0.00  0.00    +0.000 C 
BRANCH  17  23
ATOM     23  O   UNL     1       5.277   1.297   0.000  0.00  0.00    +0.000 OA
ATOM     24  C   UNL     1       5.277   2.122   0.000  0.00  0.00    +0.000 C 
ENDBRANCH  17  23
ENDBRANCH   5  16
TORSDOF 2
