REMARK  Name = 10592359
REMARK  4 active torsions:
REMARK  status: ('A' for Active; 'I' for Inactive)
REMARK    1  A    between atoms: O_2  and  C_10
REMARK    2  A    between atoms: O_3  and  C_13
REMARK    3  A    between atoms: O_6  and  C_21
REMARK    4  A    between atoms: C_9  and  C_12
REMARK                            x       y       z     vdW  Elec       q    Type
REMARK                         _______ _______ _______ _____ _____    ______ ____
ROOT
ATOM      1  O   UNL     1       5.006  -0.206   0.000  0.00  0.00    +0.000 OA
ATOM      2  O   UNL     1       5.006   2.269   0.000  0.00  0.00    +0.000 OA
ATOM      3  O   UNL     1       2.094  -0.226   0.000  0.00  0.00    +0.000 OA
ATOM      4  C   UNL     1       4.292   1.031   0.000  0.00  0.00    +0.000 A 
ATOM      5  C   UNL     1       4.292   0.206   0.000  0.00  0.00    +0.000 A 
ATOM      6  C   UNL     1       5.721   0.206   0.000  0.00  0.00    +0.000 A 
ATOM      7  C   UNL     1       5.721   1.031   0.000  0.00  0.00    +0.000 A 
ATOM      8  C   UNL     1       5.006   1.444   0.000  0.00  0.00    +0.000 A 
ATOM      9  C   UNL     1       3.554  -0.235   0.000  0.00  0.00    +0.000 A 
ATOM     10  C   UNL     1       3.554   1.472   0.000  0.00  0.00    +0.000 A 
ATOM     11  C   UNL     1       2.807   0.189   0.000  0.00  0.00    +0.000 A 
ATOM     12  C   UNL     1       2.807   1.048   0.000  0.00  0.00    +0.000 A 
ENDROOT
BRANCH   6  13
ATOM     13  C   UNL     1       6.435  -0.206   0.000  0.00  0.00    +0.000 A 
ATOM     14  C   UNL     1       7.150   0.206   0.000  0.00  0.00    +0.000 A 
ATOM     15  C   UNL     1       6.435  -1.031   0.000  0.00  0.00    +0.000 A 
ATOM     16  C   UNL     1       7.864  -0.206   0.000  0.00  0.00    +0.000 A 
ATOM     17  C   UNL     1       7.150  -1.444   0.000  0.00  0.00    +0.000 A 
ATOM     18  C   UNL     1       7.864  -1.031   0.000  0.00  0.00    +0.000 A 
BRANCH  18  19
ATOM     19  O   UNL     1       8.579  -1.444   0.000  0.00  0.00    +0.000 OA
ATOM     20  C   UNL     1       8.579  -2.269   0.000  0.00  0.00    +0.000 C 
ENDBRANCH  18  19
ENDBRANCH   6  13
BRANCH   7  21
ATOM     21  O   UNL     1       6.435   1.444   0.000  0.00  0.00    +0.000 OA
ATOM     22  C   UNL     1       6.435   2.269   0.000  0.00  0.00    +0.000 C 
ENDBRANCH   7  21
BRANCH   9  23
ATOM     23  O   UNL     1       3.564  -1.060   0.000  0.00  0.00    +0.000 OA
ATOM     24  C   UNL     1       2.854  -1.480   0.000  0.00  0.00    +0.000 C 
ENDBRANCH   9  23
TORSDOF 4
