REMARK  Name = 14544211
REMARK  2 active torsions:
REMARK  status: ('A' for Active; 'I' for Inactive)
REMARK    1  A    between atoms: O_2  and  C_15
REMARK    2  A    between atoms: C_5  and  C_9
REMARK                            x       y       z     vdW  Elec       q    Type
REMARK                         _______ _______ _______ _____ _____    ______ ____
ROOT
ATOM      1  O   UNL     1       4.531  -1.231   0.000  0.00  0.00    +0.000 OA
ATOM      2  O   UNL     1       1.650  -1.202   0.000  0.00  0.00    +0.000 OA
ATOM      3  C   UNL     1       5.278   0.053   0.000  0.00  0.00    +0.000 C 
ATOM      4  C   UNL     1       4.531   0.476   0.000  0.00  0.00    +0.000 C 
ATOM      5  C   UNL     1       5.278  -0.807   0.000  0.00  0.00    +0.000 C 
ATOM      6  C   UNL     1       3.793   0.035   0.000  0.00  0.00    +0.000 A 
ATOM      7  C   UNL     1       3.793  -0.790   0.000  0.00  0.00    +0.000 A 
ATOM      8  C   UNL     1       3.079   0.448   0.000  0.00  0.00    +0.000 A 
ATOM      9  C   UNL     1       3.079  -1.202   0.000  0.00  0.00    +0.000 A 
ATOM     10  C   UNL     1       2.364   0.035   0.000  0.00  0.00    +0.000 A 
ATOM     11  C   UNL     1       2.364  -0.790   0.000  0.00  0.00    +0.000 A 
ENDROOT
BRANCH   3  13
ATOM     12  O   UNL     1       8.130   1.714   0.000  0.00  0.00    +0.000 OA
ATOM     13  C   UNL     1       5.991   0.468   0.000  0.00  0.00    +0.000 A 
ATOM     14  C   UNL     1       5.988   1.293   0.000  0.00  0.00    +0.000 A 
ATOM     15  C   UNL     1       6.707   0.058   0.000  0.00  0.00    +0.000 A 
ATOM     16  C   UNL     1       6.701   1.708   0.000  0.00  0.00    +0.000 A 
ATOM     17  C   UNL     1       7.420   0.473   0.000  0.00  0.00    +0.000 A 
ATOM     18  C   UNL     1       7.417   1.298   0.000  0.00  0.00    +0.000 A 
ENDBRANCH   3  13
BRANCH  10  19
ATOM     19  O   UNL     1       1.650   0.448   0.000  0.00  0.00    +0.000 OA
ATOM     20  C   UNL     1       1.650   1.273   0.000  0.00  0.00    +0.000 C 
ENDBRANCH  10  19
TORSDOF 2
