REMARK  Name = 101666683
REMARK  2 active torsions:
REMARK  status: ('A' for Active; 'I' for Inactive)
REMARK    1  A    between atoms: O_4  and  C_24
REMARK    2  A    between atoms: C_5  and  C_10
REMARK                            x       y       z     vdW  Elec       q    Type
REMARK                         _______ _______ _______ _____ _____    ______ ____
ROOT
ATOM      1  O   UNL     1       5.249   1.739   0.000  0.00  0.00    +0.000 OA
ATOM      2  O   UNL     1       8.153   1.739   0.000  0.00  0.00    +0.000 OA
ATOM      3  C   UNL     1       4.502   0.455   0.000  0.00  0.00    +0.000 C 
ATOM      4  C   UNL     1       5.249   0.031   0.000  0.00  0.00    +0.000 C 
ATOM      5  C   UNL     1       5.987   0.472   0.000  0.00  0.00    +0.000 A 
ATOM      6  C   UNL     1       4.502   1.315   0.000  0.00  0.00    +0.000 C 
ATOM      7  C   UNL     1       5.987   1.298   0.000  0.00  0.00    +0.000 A 
ATOM      8  C   UNL     1       8.900   1.315   0.000  0.00  0.00    +0.000 C 
ATOM      9  C   UNL     1       6.701   0.060   0.000  0.00  0.00    +0.000 A 
ATOM     10  C   UNL     1       7.415   0.472   0.000  0.00  0.00    +0.000 A 
ATOM     11  C   UNL     1       7.415   1.298   0.000  0.00  0.00    +0.000 A 
ATOM     12  C   UNL     1       6.701   1.710   0.000  0.00  0.00    +0.000 A 
ATOM     13  C   UNL     1       8.900   0.455   0.000  0.00  0.00    +0.000 C 
ATOM     14  C   UNL     1       8.153   0.031   0.000  0.00  0.00    +0.000 C 
ATOM     15  C   UNL     1       9.725   1.318   0.000  0.00  0.00    +0.000 C 
ATOM     16  C   UNL     1       9.310   2.031   0.000  0.00  0.00    +0.000 C 
ENDROOT
BRANCH   3  18
ATOM     17  O   UNL     1       3.069   1.275   0.000  0.00  0.00    +0.000 OA
ATOM     18  C   UNL     1       3.789   0.040   0.000  0.00  0.00    +0.000 A 
ATOM     19  C   UNL     1       3.072   0.450   0.000  0.00  0.00    +0.000 A 
ATOM     20  C   UNL     1       3.792  -0.785   0.000  0.00  0.00    +0.000 A 
ATOM     21  C   UNL     1       2.360   0.035   0.000  0.00  0.00    +0.000 A 
ATOM     22  C   UNL     1       3.079  -1.200   0.000  0.00  0.00    +0.000 A 
ATOM     23  C   UNL     1       2.363  -0.790   0.000  0.00  0.00    +0.000 A 
BRANCH  23  24
ATOM     24  O   UNL     1       1.650  -1.206   0.000  0.00  0.00    +0.000 OA
ATOM     25  C   UNL     1       1.653  -2.031   0.000  0.00  0.00    +0.000 C 
ENDBRANCH  23  24
ENDBRANCH   3  18
TORSDOF 2
