REMARK  Name = 369599
REMARK  2 active torsions:
REMARK  status: ('A' for Active; 'I' for Inactive)
REMARK    1  A    between atoms: O_2  and  C_9
REMARK    2  A    between atoms: C_11  and  C_14
REMARK                            x       y       z     vdW  Elec       q    Type
REMARK                         _______ _______ _______ _____ _____    ______ ____
ROOT
ATOM      1  O   UNL     1       4.531  -0.764   0.000  0.00  0.00    +0.000 OA
ATOM      2  O   UNL     1       3.079   1.740   0.000  0.00  0.00    +0.000 OA
ATOM      3  O   UNL     1       4.521   1.768   0.000  0.00  0.00    +0.000 OA
ATOM      4  C   UNL     1       3.793   0.502   0.000  0.00  0.00    +0.000 A 
ATOM      5  C   UNL     1       3.793  -0.323   0.000  0.00  0.00    +0.000 A 
ATOM      6  C   UNL     1       2.364   0.502   0.000  0.00  0.00    +0.000 A 
ATOM      7  C   UNL     1       3.079   0.915   0.000  0.00  0.00    +0.000 A 
ATOM      8  C   UNL     1       2.364  -0.323   0.000  0.00  0.00    +0.000 A 
ATOM      9  C   UNL     1       3.079  -0.735   0.000  0.00  0.00    +0.000 A 
ATOM     10  C   UNL     1       5.278  -0.340   0.000  0.00  0.00    +0.000 A 
ATOM     11  C   UNL     1       4.531   0.943   0.000  0.00  0.00    +0.000 A 
ATOM     12  C   UNL     1       5.278   0.519   0.000  0.00  0.00    +0.000 A 
ATOM     13  C   UNL     1       1.650   0.915   0.000  0.00  0.00    +0.000 C 
ENDROOT
BRANCH  10  14
ATOM     14  C   UNL     1       5.991  -0.755   0.000  0.00  0.00    +0.000 A 
ATOM     15  C   UNL     1       5.988  -1.580   0.000  0.00  0.00    +0.000 A 
ATOM     16  C   UNL     1       6.707  -0.345   0.000  0.00  0.00    +0.000 A 
ATOM     17  C   UNL     1       6.701  -1.995   0.000  0.00  0.00    +0.000 A 
ATOM     18  C   UNL     1       7.420  -0.761   0.000  0.00  0.00    +0.000 A 
ATOM     19  C   UNL     1       7.417  -1.586   0.000  0.00  0.00    +0.000 A 
ENDBRANCH  10  14
BRANCH   8  20
ATOM     20  O   UNL     1       1.650  -0.735   0.000  0.00  0.00    +0.000 OA
ATOM     21  C   UNL     1       1.650  -1.560   0.000  0.00  0.00    +0.000 C 
ENDBRANCH   8  20
TORSDOF 2
