REMARK  Name = 10636929
REMARK  2 active torsions:
REMARK  status: ('A' for Active; 'I' for Inactive)
REMARK    1  A    between atoms: O_2  and  C_12
REMARK    2  A    between atoms: C_6  and  C_8
REMARK                            x       y       z     vdW  Elec       q    Type
REMARK                         _______ _______ _______ _____ _____    ______ ____
ROOT
ATOM      1  O   UNL     1       5.006  -0.600   0.000  0.00  0.00    +0.000 OA
ATOM      2  O   UNL     1       5.006   1.875   0.000  0.00  0.00    +0.000 OA
ATOM      3  O   UNL     1       2.094  -0.620   0.000  0.00  0.00    +0.000 OA
ATOM      4  C   UNL     1       5.721  -0.188   0.000  0.00  0.00    +0.000 C 
ATOM      5  C   UNL     1       5.721   0.637   0.000  0.00  0.00    +0.000 C 
ATOM      6  C   UNL     1       4.292   0.637   0.000  0.00  0.00    +0.000 A 
ATOM      7  C   UNL     1       4.292  -0.188   0.000  0.00  0.00    +0.000 A 
ATOM      8  C   UNL     1       5.006   1.050   0.000  0.00  0.00    +0.000 C 
ATOM      9  C   UNL     1       3.554  -0.629   0.000  0.00  0.00    +0.000 A 
ATOM     10  C   UNL     1       3.554   1.078   0.000  0.00  0.00    +0.000 A 
ATOM     11  C   UNL     1       2.807  -0.205   0.000  0.00  0.00    +0.000 A 
ATOM     12  C   UNL     1       2.807   0.654   0.000  0.00  0.00    +0.000 A 
ENDROOT
BRANCH   4  14
ATOM     13  O   UNL     1       8.579  -1.838   0.000  0.00  0.00    +0.000 OA
ATOM     14  C   UNL     1       6.435  -0.600   0.000  0.00  0.00    +0.000 A 
ATOM     15  C   UNL     1       7.150  -0.188   0.000  0.00  0.00    +0.000 A 
ATOM     16  C   UNL     1       6.435  -1.425   0.000  0.00  0.00    +0.000 A 
ATOM     17  C   UNL     1       7.864  -0.600   0.000  0.00  0.00    +0.000 A 
ATOM     18  C   UNL     1       7.150  -1.838   0.000  0.00  0.00    +0.000 A 
ATOM     19  C   UNL     1       7.864  -1.425   0.000  0.00  0.00    +0.000 A 
ENDBRANCH   4  14
BRANCH   9  20
ATOM     20  O   UNL     1       3.564  -1.454   0.000  0.00  0.00    +0.000 OA
ATOM     21  C   UNL     1       2.854  -1.875   0.000  0.00  0.00    +0.000 C 
ENDBRANCH   9  20
TORSDOF 2
