REMARK  Name = 5378220
REMARK  2 active torsions:
REMARK  status: ('A' for Active; 'I' for Inactive)
REMARK    1  A    between atoms: O_2  and  C_17
REMARK    2  A    between atoms: C_6  and  C_8
REMARK                            x       y       z     vdW  Elec       q    Type
REMARK                         _______ _______ _______ _____ _____    ______ ____
ROOT
ATOM      1  O   UNL     1       5.006  -0.078   0.000  0.00  0.00    +0.000 OA
ATOM      2  O   UNL     1       5.006   2.397   0.000  0.00  0.00    +0.000 OA
ATOM      3  O   UNL     1       2.094  -0.098   0.000  0.00  0.00    +0.000 OA
ATOM      4  C   UNL     1       5.721   0.334   0.000  0.00  0.00    +0.000 A 
ATOM      5  C   UNL     1       4.292   1.159   0.000  0.00  0.00    +0.000 A 
ATOM      6  C   UNL     1       4.292   0.334   0.000  0.00  0.00    +0.000 A 
ATOM      7  C   UNL     1       5.721   1.159   0.000  0.00  0.00    +0.000 A 
ATOM      8  C   UNL     1       5.006   1.572   0.000  0.00  0.00    +0.000 A 
ATOM      9  C   UNL     1       3.554   1.600   0.000  0.00  0.00    +0.000 A 
ATOM     10  C   UNL     1       3.554  -0.107   0.000  0.00  0.00    +0.000 A 
ATOM     11  C   UNL     1       2.807   0.317   0.000  0.00  0.00    +0.000 A 
ATOM     12  C   UNL     1       2.807   1.176   0.000  0.00  0.00    +0.000 A 
ENDROOT
BRANCH   4  14
ATOM     13  O   UNL     1       7.150  -2.141   0.000  0.00  0.00    +0.000 OA
ATOM     14  C   UNL     1       6.435  -0.078   0.000  0.00  0.00    +0.000 A 
ATOM     15  C   UNL     1       6.435  -0.903   0.000  0.00  0.00    +0.000 A 
ATOM     16  C   UNL     1       7.150   0.334   0.000  0.00  0.00    +0.000 A 
ATOM     17  C   UNL     1       7.150  -1.316   0.000  0.00  0.00    +0.000 A 
ATOM     18  C   UNL     1       7.864  -0.903   0.000  0.00  0.00    +0.000 A 
ATOM     19  C   UNL     1       7.864  -0.078   0.000  0.00  0.00    +0.000 A 
BRANCH  18  20
ATOM     20  O   UNL     1       8.579  -1.316   0.000  0.00  0.00    +0.000 OA
ATOM     21  C   UNL     1       9.293  -0.903   0.000  0.00  0.00    +0.000 C 
ENDBRANCH  18  20
ENDBRANCH   4  14
TORSDOF 2
