REMARK  Name = 101101166
REMARK  2 active torsions:
REMARK  status: ('A' for Active; 'I' for Inactive)
REMARK    1  A    between atoms: O_3  and  C_16
REMARK    2  A    between atoms: C_6  and  C_9
REMARK                            x       y       z     vdW  Elec       q    Type
REMARK                         _______ _______ _______ _____ _____    ______ ____
ROOT
ATOM      1  O   UNL     1       4.562  -1.178   0.000  0.00  0.00    +0.000 OA
ATOM      2  O   UNL     1       4.562   1.297   0.000  0.00  0.00    +0.000 OA
ATOM      3  O   UNL     1       1.650  -1.198   0.000  0.00  0.00    +0.000 OA
ATOM      4  C   UNL     1       5.277   0.059   0.000  0.00  0.00    +0.000 C 
ATOM      5  C   UNL     1       5.277  -0.765   0.000  0.00  0.00    +0.000 C 
ATOM      6  C   UNL     1       4.562   0.472   0.000  0.00  0.00    +0.000 C 
ATOM      7  C   UNL     1       3.848   0.059   0.000  0.00  0.00    +0.000 A 
ATOM      8  C   UNL     1       3.848  -0.765   0.000  0.00  0.00    +0.000 A 
ATOM      9  C   UNL     1       3.110   0.500   0.000  0.00  0.00    +0.000 A 
ATOM     10  C   UNL     1       3.110  -1.207   0.000  0.00  0.00    +0.000 A 
ATOM     11  C   UNL     1       2.363   0.077   0.000  0.00  0.00    +0.000 A 
ATOM     12  C   UNL     1       2.363  -0.783   0.000  0.00  0.00    +0.000 A 
ENDROOT
BRANCH   4  14
ATOM     13  O   UNL     1       8.135   1.710   0.000  0.00  0.00    +0.000 OA
ATOM     14  C   UNL     1       5.991   0.472   0.000  0.00  0.00    +0.000 A 
ATOM     15  C   UNL     1       5.991   1.297   0.000  0.00  0.00    +0.000 A 
ATOM     16  C   UNL     1       6.706   0.059   0.000  0.00  0.00    +0.000 A 
ATOM     17  C   UNL     1       6.706   1.710   0.000  0.00  0.00    +0.000 A 
ATOM     18  C   UNL     1       7.420   0.472   0.000  0.00  0.00    +0.000 A 
ATOM     19  C   UNL     1       7.420   1.297   0.000  0.00  0.00    +0.000 A 
ENDBRANCH   4  14
BRANCH  11  20
ATOM     20  O   UNL     1       1.650   0.492   0.000  0.00  0.00    +0.000 OA
ATOM     21  C   UNL     1       1.653   1.317   0.000  0.00  0.00    +0.000 C 
ENDBRANCH  11  20
TORSDOF 2
