REMARK  Name = 11491431
REMARK  2 active torsions:
REMARK  status: ('A' for Active; 'I' for Inactive)
REMARK    1  A    between atoms: O_2  and  C_12
REMARK    2  A    between atoms: C_6  and  C_11
REMARK                            x       y       z     vdW  Elec       q    Type
REMARK                         _______ _______ _______ _____ _____    ______ ____
ROOT
ATOM      1  O   UNL     1       4.974  -0.764   0.000  0.00  0.00    +0.000 OA
ATOM      2  O   UNL     1       4.964   1.768   0.000  0.00  0.00    +0.000 OA
ATOM      3  O   UNL     1       3.522   1.740   0.000  0.00  0.00    +0.000 OA
ATOM      4  O   UNL     1       2.093  -0.735   0.000  0.00  0.00    +0.000 OA
ATOM      5  C   UNL     1       5.721  -0.340   0.000  0.00  0.00    +0.000 C 
ATOM      6  C   UNL     1       5.721   0.519   0.000  0.00  0.00    +0.000 C 
ATOM      7  C   UNL     1       4.236   0.502   0.000  0.00  0.00    +0.000 A 
ATOM      8  C   UNL     1       4.236  -0.323   0.000  0.00  0.00    +0.000 A 
ATOM      9  C   UNL     1       4.974   0.943   0.000  0.00  0.00    +0.000 C 
ATOM     10  C   UNL     1       3.522  -0.735   0.000  0.00  0.00    +0.000 A 
ATOM     11  C   UNL     1       3.522   0.915   0.000  0.00  0.00    +0.000 A 
ATOM     12  C   UNL     1       2.808  -0.323   0.000  0.00  0.00    +0.000 A 
ATOM     13  C   UNL     1       2.808   0.502   0.000  0.00  0.00    +0.000 A 
ENDROOT
BRANCH   5  14
ATOM     14  C   UNL     1       6.434  -0.755   0.000  0.00  0.00    +0.000 A 
ATOM     15  C   UNL     1       6.431  -1.580   0.000  0.00  0.00    +0.000 A 
ATOM     16  C   UNL     1       7.150  -0.345   0.000  0.00  0.00    +0.000 A 
ATOM     17  C   UNL     1       7.144  -1.995   0.000  0.00  0.00    +0.000 A 
ATOM     18  C   UNL     1       7.863  -0.761   0.000  0.00  0.00    +0.000 A 
ATOM     19  C   UNL     1       7.860  -1.586   0.000  0.00  0.00    +0.000 A 
ENDBRANCH   5  14
BRANCH  10  20
ATOM     20  O   UNL     1       3.522  -1.560   0.000  0.00  0.00    +0.000 OA
ATOM     21  C   UNL     1       2.808  -1.973   0.000  0.00  0.00    +0.000 C 
ENDBRANCH  10  20
TORSDOF 2
