REMARK  Name = 591624
REMARK  3 active torsions:
REMARK  status: ('A' for Active; 'I' for Inactive)
REMARK    1  A    between atoms: O_3  and  C_16
REMARK    2  A    between atoms: O_4  and  C_19
REMARK    3  A    between atoms: C_5  and  C_9
REMARK                            x       y       z     vdW  Elec       q    Type
REMARK                         _______ _______ _______ _____ _____    ______ ____
ROOT
ATOM      1  O   UNL     1       5.278  -1.685   0.000  0.00  0.00    +0.000 OA
ATOM      2  C   UNL     1       5.993  -0.448   0.000  0.00  0.00    +0.000 C 
ATOM      3  C   UNL     1       5.278  -0.035   0.000  0.00  0.00    +0.000 C 
ATOM      4  C   UNL     1       5.993  -1.273   0.000  0.00  0.00    +0.000 C 
ATOM      5  C   UNL     1       4.564  -0.448   0.000  0.00  0.00    +0.000 A 
ATOM      6  C   UNL     1       4.564  -1.273   0.000  0.00  0.00    +0.000 A 
ATOM      7  C   UNL     1       3.826  -0.007   0.000  0.00  0.00    +0.000 A 
ATOM      8  C   UNL     1       3.826  -1.714   0.000  0.00  0.00    +0.000 A 
ATOM      9  C   UNL     1       3.079  -0.431   0.000  0.00  0.00    +0.000 A 
ATOM     10  C   UNL     1       3.079  -1.290   0.000  0.00  0.00    +0.000 A 
ENDROOT
BRANCH   2  12
ATOM     11  O   UNL     1       5.993   1.202   0.000  0.00  0.00    +0.000 OA
ATOM     12  C   UNL     1       6.707  -0.035   0.000  0.00  0.00    +0.000 A 
ATOM     13  C   UNL     1       6.707   0.790   0.000  0.00  0.00    +0.000 A 
ATOM     14  C   UNL     1       7.422  -0.448   0.000  0.00  0.00    +0.000 A 
ATOM     15  C   UNL     1       7.422   1.202   0.000  0.00  0.00    +0.000 A 
ATOM     16  C   UNL     1       8.136  -0.035   0.000  0.00  0.00    +0.000 A 
ATOM     17  C   UNL     1       8.136   0.790   0.000  0.00  0.00    +0.000 A 
BRANCH  17  18
ATOM     18  O   UNL     1       8.851   1.202   0.000  0.00  0.00    +0.000 OA
ATOM     19  C   UNL     1       9.565   0.790   0.000  0.00  0.00    +0.000 C 
ENDBRANCH  17  18
ENDBRANCH   2  12
BRANCH  10  20
ATOM     20  O   UNL     1       2.366  -1.705   0.000  0.00  0.00    +0.000 OA
ATOM     21  C   UNL     1       1.650  -1.295   0.000  0.00  0.00    +0.000 C 
ENDBRANCH  10  20
TORSDOF 3
