REMARK  Name = 129685429
REMARK  2 active torsions:
REMARK  status: ('A' for Active; 'I' for Inactive)
REMARK    1  A    between atoms: O_5  and  C_21
REMARK    2  A    between atoms: C_6  and  C_10
REMARK                            x       y       z     vdW  Elec       q    Type
REMARK                         _______ _______ _______ _____ _____    ______ ____
ROOT
ATOM      1  O   UNL     1       4.974  -1.074   0.000  0.00  0.00    +0.000 OA
ATOM      2  O   UNL     1       4.964   1.458   0.000  0.00  0.00    +0.000 OA
ATOM      3  O   UNL     1       3.522   1.430   0.000  0.00  0.00    +0.000 OA
ATOM      4  O   UNL     1       2.093  -1.045   0.000  0.00  0.00    +0.000 OA
ATOM      5  C   UNL     1       5.721   0.209   0.000  0.00  0.00    +0.000 C 
ATOM      6  C   UNL     1       5.721  -0.650   0.000  0.00  0.00    +0.000 C 
ATOM      7  C   UNL     1       4.974   0.633   0.000  0.00  0.00    +0.000 C 
ATOM      8  C   UNL     1       4.236   0.192   0.000  0.00  0.00    +0.000 A 
ATOM      9  C   UNL     1       4.236  -0.633   0.000  0.00  0.00    +0.000 A 
ATOM     10  C   UNL     1       3.522  -1.045   0.000  0.00  0.00    +0.000 A 
ATOM     11  C   UNL     1       3.522   0.605   0.000  0.00  0.00    +0.000 A 
ATOM     12  C   UNL     1       2.808  -0.633   0.000  0.00  0.00    +0.000 A 
ATOM     13  C   UNL     1       2.808   0.192   0.000  0.00  0.00    +0.000 A 
ATOM     14  C   UNL     1       3.522  -1.870   0.000  0.00  0.00    +0.000 C 
ENDROOT
BRANCH   5  15
ATOM     15  C   UNL     1       6.434   0.625   0.000  0.00  0.00    +0.000 A 
ATOM     16  C   UNL     1       6.431   1.450   0.000  0.00  0.00    +0.000 A 
ATOM     17  C   UNL     1       7.150   0.215   0.000  0.00  0.00    +0.000 A 
ATOM     18  C   UNL     1       7.144   1.865   0.000  0.00  0.00    +0.000 A 
ATOM     19  C   UNL     1       7.863   0.630   0.000  0.00  0.00    +0.000 A 
ATOM     20  C   UNL     1       7.860   1.455   0.000  0.00  0.00    +0.000 A 
BRANCH  20  21
ATOM     21  O   UNL     1       8.573   1.870   0.000  0.00  0.00    +0.000 OA
ATOM     22  C   UNL     1       9.289   1.461   0.000  0.00  0.00    +0.000 C 
ENDBRANCH  20  21
ENDBRANCH   5  15
TORSDOF 2
