REMARK  Name = 156743
REMARK  2 active torsions:
REMARK  status: ('A' for Active; 'I' for Inactive)
REMARK    1  A    between atoms: O_3  and  C_13
REMARK    2  A    between atoms: C_7  and  C_9
REMARK                            x       y       z     vdW  Elec       q    Type
REMARK                         _______ _______ _______ _____ _____    ______ ____
ROOT
ATOM      1  O   UNL     1       4.562  -1.434   0.000  0.00  0.00    +0.000 OA
ATOM      2  O   UNL     1       4.562   1.041   0.000  0.00  0.00    +0.000 OA
ATOM      3  O   UNL     1       3.120   1.070   0.000  0.00  0.00    +0.000 OA
ATOM      4  O   UNL     1       1.650  -1.454   0.000  0.00  0.00    +0.000 OA
ATOM      5  C   UNL     1       5.277  -0.196   0.000  0.00  0.00    +0.000 C 
ATOM      6  C   UNL     1       5.277  -1.021   0.000  0.00  0.00    +0.000 C 
ATOM      7  C   UNL     1       4.562   0.216   0.000  0.00  0.00    +0.000 C 
ATOM      8  C   UNL     1       3.848  -0.196   0.000  0.00  0.00    +0.000 A 
ATOM      9  C   UNL     1       3.848  -1.021   0.000  0.00  0.00    +0.000 A 
ATOM     10  C   UNL     1       3.110   0.245   0.000  0.00  0.00    +0.000 A 
ATOM     11  C   UNL     1       3.110  -1.462   0.000  0.00  0.00    +0.000 A 
ATOM     12  C   UNL     1       2.363  -0.179   0.000  0.00  0.00    +0.000 A 
ATOM     13  C   UNL     1       2.363  -1.038   0.000  0.00  0.00    +0.000 A 
ENDROOT
BRANCH   5  15
ATOM     14  O   UNL     1       8.135   1.454   0.000  0.00  0.00    +0.000 OA
ATOM     15  C   UNL     1       5.991   0.216   0.000  0.00  0.00    +0.000 A 
ATOM     16  C   UNL     1       6.706  -0.196   0.000  0.00  0.00    +0.000 A 
ATOM     17  C   UNL     1       5.991   1.041   0.000  0.00  0.00    +0.000 A 
ATOM     18  C   UNL     1       7.420   0.216   0.000  0.00  0.00    +0.000 A 
ATOM     19  C   UNL     1       6.706   1.454   0.000  0.00  0.00    +0.000 A 
ATOM     20  C   UNL     1       7.420   1.041   0.000  0.00  0.00    +0.000 A 
BRANCH  16  21
ATOM     21  O   UNL     1       6.706  -1.021   0.000  0.00  0.00    +0.000 OA
ATOM     22  C   UNL     1       7.420  -1.434   0.000  0.00  0.00    +0.000 C 
ENDBRANCH  16  21
ENDBRANCH   5  15
TORSDOF 2
