REMARK  Name = 13886678
REMARK  3 active torsions:
REMARK  status: ('A' for Active; 'I' for Inactive)
REMARK    1  A    between atoms: O_3  and  C_12
REMARK    2  A    between atoms: O_4  and  C_18
REMARK    3  A    between atoms: C_6  and  C_8
REMARK                            x       y       z     vdW  Elec       q    Type
REMARK                         _______ _______ _______ _____ _____    ______ ____
ROOT
ATOM      1  O   UNL     1       5.006  -1.842   0.000  0.00  0.00    +0.000 OA
ATOM      2  O   UNL     1       5.006   0.633   0.000  0.00  0.00    +0.000 OA
ATOM      3  O   UNL     1       2.094  -1.862   0.000  0.00  0.00    +0.000 OA
ATOM      4  C   UNL     1       5.721  -0.605   0.000  0.00  0.00    +0.000 C 
ATOM      5  C   UNL     1       5.721  -1.429   0.000  0.00  0.00    +0.000 C 
ATOM      6  C   UNL     1       5.006  -0.192   0.000  0.00  0.00    +0.000 C 
ATOM      7  C   UNL     1       4.292  -0.605   0.000  0.00  0.00    +0.000 A 
ATOM      8  C   UNL     1       4.292  -1.429   0.000  0.00  0.00    +0.000 A 
ATOM      9  C   UNL     1       3.554  -0.163   0.000  0.00  0.00    +0.000 A 
ATOM     10  C   UNL     1       3.554  -1.871   0.000  0.00  0.00    +0.000 A 
ATOM     11  C   UNL     1       2.807  -0.587   0.000  0.00  0.00    +0.000 A 
ATOM     12  C   UNL     1       2.807  -1.447   0.000  0.00  0.00    +0.000 A 
ENDROOT
BRANCH   4  13
ATOM     13  C   UNL     1       6.435  -0.192   0.000  0.00  0.00    +0.000 A 
ATOM     14  C   UNL     1       7.150  -0.605   0.000  0.00  0.00    +0.000 A 
ATOM     15  C   UNL     1       6.435   0.633   0.000  0.00  0.00    +0.000 A 
ATOM     16  C   UNL     1       7.864  -0.192   0.000  0.00  0.00    +0.000 A 
ATOM     17  C   UNL     1       7.150   1.046   0.000  0.00  0.00    +0.000 A 
ATOM     18  C   UNL     1       7.864   0.633   0.000  0.00  0.00    +0.000 A 
BRANCH  14  19
ATOM     19  O   UNL     1       7.150  -1.429   0.000  0.00  0.00    +0.000 OA
ATOM     20  C   UNL     1       7.864  -1.842   0.000  0.00  0.00    +0.000 C 
ENDBRANCH  14  19
BRANCH  18  21
ATOM     21  O   UNL     1       8.579   1.046   0.000  0.00  0.00    +0.000 OA
ATOM     22  C   UNL     1       8.579   1.871   0.000  0.00  0.00    +0.000 C 
ENDBRANCH  18  21
ENDBRANCH   4  13
TORSDOF 3
