REMARK  Name = 14164881
REMARK  2 active torsions:
REMARK  status: ('A' for Active; 'I' for Inactive)
REMARK    1  A    between atoms: O_2  and  C_8
REMARK    2  A    between atoms: C_7  and  C_10
REMARK                            x       y       z     vdW  Elec       q    Type
REMARK                         _______ _______ _______ _____ _____    ______ ____
ROOT
ATOM      1  O   UNL     1       5.006  -0.508   0.000  0.00  0.00    +0.000 OA
ATOM      2  O   UNL     1       5.006   1.967   0.000  0.00  0.00    +0.000 OA
ATOM      3  O   UNL     1       3.564   1.996   0.000  0.00  0.00    +0.000 OA
ATOM      4  O   UNL     1       2.094  -0.528   0.000  0.00  0.00    +0.000 OA
ATOM      5  C   UNL     1       5.721  -0.095   0.000  0.00  0.00    +0.000 C 
ATOM      6  C   UNL     1       5.721   0.730   0.000  0.00  0.00    +0.000 C 
ATOM      7  C   UNL     1       5.006   1.142   0.000  0.00  0.00    +0.000 C 
ATOM      8  C   UNL     1       4.292   0.730   0.000  0.00  0.00    +0.000 A 
ATOM      9  C   UNL     1       4.292  -0.095   0.000  0.00  0.00    +0.000 A 
ATOM     10  C   UNL     1       3.554   1.171   0.000  0.00  0.00    +0.000 A 
ATOM     11  C   UNL     1       3.554  -0.536   0.000  0.00  0.00    +0.000 A 
ATOM     12  C   UNL     1       2.807   0.747   0.000  0.00  0.00    +0.000 A 
ATOM     13  C   UNL     1       2.807  -0.112   0.000  0.00  0.00    +0.000 A 
ENDROOT
BRANCH   5  15
ATOM     14  O   UNL     1       8.579  -1.745   0.000  0.00  0.00    +0.000 OA
ATOM     15  C   UNL     1       6.435  -0.508   0.000  0.00  0.00    +0.000 A 
ATOM     16  C   UNL     1       7.150  -0.095   0.000  0.00  0.00    +0.000 A 
ATOM     17  C   UNL     1       6.435  -1.333   0.000  0.00  0.00    +0.000 A 
ATOM     18  C   UNL     1       7.864  -0.508   0.000  0.00  0.00    +0.000 A 
ATOM     19  C   UNL     1       7.150  -1.745   0.000  0.00  0.00    +0.000 A 
ATOM     20  C   UNL     1       7.864  -1.333   0.000  0.00  0.00    +0.000 A 
ENDBRANCH   5  15
BRANCH   6  21
ATOM     21  O   UNL     1       6.435   1.142   0.000  0.00  0.00    +0.000 OA
ATOM     22  C   UNL     1       6.435   1.967   0.000  0.00  0.00    +0.000 C 
ENDBRANCH   6  21
TORSDOF 2
