REMARK  Name = 129684544
REMARK  3 active torsions:
REMARK  status: ('A' for Active; 'I' for Inactive)
REMARK    1  A    between atoms: O_3  and  C_16
REMARK    2  A    between atoms: O_5  and  C_20
REMARK    3  A    between atoms: C_6  and  C_10
REMARK                            x       y       z     vdW  Elec       q    Type
REMARK                         _______ _______ _______ _____ _____    ______ ____
ROOT
ATOM      1  O   UNL     1       4.531  -1.643   0.000  0.00  0.00    +0.000 OA
ATOM      2  O   UNL     1       1.650  -1.615   0.000  0.00  0.00    +0.000 OA
ATOM      3  C   UNL     1       5.278  -0.360   0.000  0.00  0.00    +0.000 C 
ATOM      4  C   UNL     1       4.531   0.064   0.000  0.00  0.00    +0.000 C 
ATOM      5  C   UNL     1       5.278  -1.219   0.000  0.00  0.00    +0.000 C 
ATOM      6  C   UNL     1       3.793  -0.377   0.000  0.00  0.00    +0.000 A 
ATOM      7  C   UNL     1       3.793  -1.202   0.000  0.00  0.00    +0.000 A 
ATOM      8  C   UNL     1       3.079   0.035   0.000  0.00  0.00    +0.000 A 
ATOM      9  C   UNL     1       3.079  -1.615   0.000  0.00  0.00    +0.000 A 
ATOM     10  C   UNL     1       2.364  -0.377   0.000  0.00  0.00    +0.000 A 
ATOM     11  C   UNL     1       2.364  -1.202   0.000  0.00  0.00    +0.000 A 
ENDROOT
BRANCH   3  13
ATOM     12  O   UNL     1       6.710  -1.179   0.000  0.00  0.00    +0.000 OA
ATOM     13  C   UNL     1       5.991   0.055   0.000  0.00  0.00    +0.000 A 
ATOM     14  C   UNL     1       6.707  -0.354   0.000  0.00  0.00    +0.000 A 
ATOM     15  C   UNL     1       5.988   0.880   0.000  0.00  0.00    +0.000 A 
ATOM     16  C   UNL     1       7.420   0.061   0.000  0.00  0.00    +0.000 A 
ATOM     17  C   UNL     1       6.701   1.296   0.000  0.00  0.00    +0.000 A 
ATOM     18  C   UNL     1       7.417   0.886   0.000  0.00  0.00    +0.000 A 
BRANCH  18  19
ATOM     19  O   UNL     1       8.130   1.301   0.000  0.00  0.00    +0.000 OA
ATOM     20  C   UNL     1       8.127   2.126   0.000  0.00  0.00    +0.000 C 
ENDBRANCH  18  19
ENDBRANCH   3  13
BRANCH  10  21
ATOM     21  O   UNL     1       1.650   0.035   0.000  0.00  0.00    +0.000 OA
ATOM     22  C   UNL     1       1.650   0.860   0.000  0.00  0.00    +0.000 C 
ENDBRANCH  10  21
TORSDOF 3
