REMARK  Name = 15715157
REMARK  3 active torsions:
REMARK  status: ('A' for Active; 'I' for Inactive)
REMARK    1  A    between atoms: O_2  and  C_11
REMARK    2  A    between atoms: O_5  and  C_21
REMARK    3  A    between atoms: C_10  and  C_15
REMARK                            x       y       z     vdW  Elec       q    Type
REMARK                         _______ _______ _______ _____ _____    ______ ____
ROOT
ATOM      1  O   UNL     1       4.531  -0.761   0.000  0.00  0.00    +0.000 OA
ATOM      2  O   UNL     1       3.079   1.742   0.000  0.00  0.00    +0.000 OA
ATOM      3  O   UNL     1       4.521   1.771   0.000  0.00  0.00    +0.000 OA
ATOM      4  C   UNL     1       3.793   0.505   0.000  0.00  0.00    +0.000 A 
ATOM      5  C   UNL     1       3.793  -0.320   0.000  0.00  0.00    +0.000 A 
ATOM      6  C   UNL     1       2.364   0.505   0.000  0.00  0.00    +0.000 A 
ATOM      7  C   UNL     1       3.079   0.917   0.000  0.00  0.00    +0.000 A 
ATOM      8  C   UNL     1       5.278  -0.337   0.000  0.00  0.00    +0.000 A 
ATOM      9  C   UNL     1       2.364  -0.320   0.000  0.00  0.00    +0.000 A 
ATOM     10  C   UNL     1       3.079  -0.733   0.000  0.00  0.00    +0.000 A 
ATOM     11  C   UNL     1       4.531   0.946   0.000  0.00  0.00    +0.000 A 
ATOM     12  C   UNL     1       5.278   0.522   0.000  0.00  0.00    +0.000 A 
ATOM     13  C   UNL     1       1.650   0.917   0.000  0.00  0.00    +0.000 C 
ENDROOT
BRANCH   8  14
ATOM     14  C   UNL     1       5.991  -0.752   0.000  0.00  0.00    +0.000 A 
ATOM     15  C   UNL     1       6.707  -0.343   0.000  0.00  0.00    +0.000 A 
ATOM     16  C   UNL     1       5.988  -1.577   0.000  0.00  0.00    +0.000 A 
ATOM     17  C   UNL     1       7.420  -0.758   0.000  0.00  0.00    +0.000 A 
ATOM     18  C   UNL     1       6.701  -1.993   0.000  0.00  0.00    +0.000 A 
ATOM     19  C   UNL     1       7.417  -1.583   0.000  0.00  0.00    +0.000 A 
BRANCH  19  20
ATOM     20  O   UNL     1       8.130  -1.998   0.000  0.00  0.00    +0.000 OA
ATOM     21  C   UNL     1       8.846  -1.588   0.000  0.00  0.00    +0.000 C 
ENDBRANCH  19  20
ENDBRANCH   8  14
BRANCH   9  22
ATOM     22  O   UNL     1       1.650  -0.733   0.000  0.00  0.00    +0.000 OA
ATOM     23  C   UNL     1       1.650  -1.558   0.000  0.00  0.00    +0.000 C 
ENDBRANCH   9  22
TORSDOF 3
