REMARK  Name = 44257599
REMARK  4 active torsions:
REMARK  status: ('A' for Active; 'I' for Inactive)
REMARK    1  A    between atoms: O_2  and  C_9
REMARK    2  A    between atoms: O_3  and  C_13
REMARK    3  A    between atoms: O_5  and  C_18
REMARK    4  A    between atoms: C_8  and  C_11
REMARK                            x       y       z     vdW  Elec       q    Type
REMARK                         _______ _______ _______ _____ _____    ______ ____
ROOT
ATOM      1  O   UNL     1       5.278  -0.225   0.000  0.00  0.00    +0.000 OA
ATOM      2  O   UNL     1       5.278   2.250   0.000  0.00  0.00    +0.000 OA
ATOM      3  C   UNL     1       4.564   1.013   0.000  0.00  0.00    +0.000 A 
ATOM      4  C   UNL     1       4.564   0.188   0.000  0.00  0.00    +0.000 A 
ATOM      5  C   UNL     1       5.993   0.188   0.000  0.00  0.00    +0.000 A 
ATOM      6  C   UNL     1       3.826   1.454   0.000  0.00  0.00    +0.000 A 
ATOM      7  C   UNL     1       5.278   1.425   0.000  0.00  0.00    +0.000 A 
ATOM      8  C   UNL     1       5.993   1.013   0.000  0.00  0.00    +0.000 A 
ATOM      9  C   UNL     1       3.079   1.030   0.000  0.00  0.00    +0.000 A 
ATOM     10  C   UNL     1       3.826  -0.253   0.000  0.00  0.00    +0.000 A 
ATOM     11  C   UNL     1       3.079   0.171   0.000  0.00  0.00    +0.000 A 
ENDROOT
BRANCH   5  12
ATOM     12  C   UNL     1       6.707  -0.225   0.000  0.00  0.00    +0.000 A 
ATOM     13  C   UNL     1       6.707  -1.050   0.000  0.00  0.00    +0.000 A 
ATOM     14  C   UNL     1       7.422   0.188   0.000  0.00  0.00    +0.000 A 
ATOM     15  C   UNL     1       7.422  -1.462   0.000  0.00  0.00    +0.000 A 
ATOM     16  C   UNL     1       8.136  -0.225   0.000  0.00  0.00    +0.000 A 
ATOM     17  C   UNL     1       8.136  -1.050   0.000  0.00  0.00    +0.000 A 
BRANCH  15  18
ATOM     18  O   UNL     1       7.422  -2.287   0.000  0.00  0.00    +0.000 OA
ATOM     19  C   UNL     1       8.136  -2.700   0.000  0.00  0.00    +0.000 C 
ENDBRANCH  15  18
ENDBRANCH   5  12
BRANCH   6  20
ATOM     20  O   UNL     1       3.836   2.279   0.000  0.00  0.00    +0.000 OA
ATOM     21  C   UNL     1       3.126   2.700   0.000  0.00  0.00    +0.000 C 
ENDBRANCH   6  20
BRANCH   9  22
ATOM     22  O   UNL     1       2.366   1.445   0.000  0.00  0.00    +0.000 OA
ATOM     23  C   UNL     1       1.650   1.036   0.000  0.00  0.00    +0.000 C 
ENDBRANCH   9  22
TORSDOF 4
