REMARK  Name = 79730
REMARK  4 active torsions:
REMARK  status: ('A' for Active; 'I' for Inactive)
REMARK    1  A    between atoms: O_2  and  C_9
REMARK    2  A    between atoms: O_3  and  C_14
REMARK    3  A    between atoms: O_5  and  C_20
REMARK    4  A    between atoms: C_8  and  C_11
REMARK                            x       y       z     vdW  Elec       q    Type
REMARK                         _______ _______ _______ _____ _____    ______ ____
ROOT
ATOM      1  O   UNL     1       5.278  -0.843   0.000  0.00  0.00    +0.000 OA
ATOM      2  O   UNL     1       5.278   1.632   0.000  0.00  0.00    +0.000 OA
ATOM      3  C   UNL     1       4.564   0.394   0.000  0.00  0.00    +0.000 A 
ATOM      4  C   UNL     1       4.564  -0.431   0.000  0.00  0.00    +0.000 A 
ATOM      5  C   UNL     1       5.993  -0.431   0.000  0.00  0.00    +0.000 A 
ATOM      6  C   UNL     1       3.826   0.835   0.000  0.00  0.00    +0.000 A 
ATOM      7  C   UNL     1       5.278   0.807   0.000  0.00  0.00    +0.000 A 
ATOM      8  C   UNL     1       5.993   0.394   0.000  0.00  0.00    +0.000 A 
ATOM      9  C   UNL     1       3.826  -0.872   0.000  0.00  0.00    +0.000 A 
ATOM     10  C   UNL     1       3.079  -0.448   0.000  0.00  0.00    +0.000 A 
ATOM     11  C   UNL     1       3.079   0.411   0.000  0.00  0.00    +0.000 A 
ENDROOT
BRANCH   5  12
ATOM     12  C   UNL     1       6.707  -0.843   0.000  0.00  0.00    +0.000 A 
ATOM     13  C   UNL     1       7.422  -0.431   0.000  0.00  0.00    +0.000 A 
ATOM     14  C   UNL     1       6.707  -1.668   0.000  0.00  0.00    +0.000 A 
ATOM     15  C   UNL     1       8.136  -0.843   0.000  0.00  0.00    +0.000 A 
ATOM     16  C   UNL     1       7.422  -2.081   0.000  0.00  0.00    +0.000 A 
ATOM     17  C   UNL     1       8.136  -1.668   0.000  0.00  0.00    +0.000 A 
BRANCH  17  18
ATOM     18  O   UNL     1       8.851  -2.081   0.000  0.00  0.00    +0.000 OA
ATOM     19  C   UNL     1       9.565  -1.668   0.000  0.00  0.00    +0.000 C 
ENDBRANCH  17  18
ENDBRANCH   5  12
BRANCH   6  20
ATOM     20  O   UNL     1       3.836   1.660   0.000  0.00  0.00    +0.000 OA
ATOM     21  C   UNL     1       3.126   2.081   0.000  0.00  0.00    +0.000 C 
ENDBRANCH   6  20
BRANCH  10  22
ATOM     22  O   UNL     1       2.366  -0.863   0.000  0.00  0.00    +0.000 OA
ATOM     23  C   UNL     1       1.650  -0.454   0.000  0.00  0.00    +0.000 C 
ENDBRANCH  10  22
TORSDOF 4
