REMARK  Name = 332208
REMARK  4 active torsions:
REMARK  status: ('A' for Active; 'I' for Inactive)
REMARK    1  A    between atoms: O_2  and  C_12
REMARK    2  A    between atoms: O_3  and  C_13
REMARK    3  A    between atoms: O_4  and  C_14
REMARK    4  A    between atoms: C_6  and  C_7
REMARK                            x       y       z     vdW  Elec       q    Type
REMARK                         _______ _______ _______ _____ _____    ______ ____
ROOT
ATOM      1  C   UNL     1       5.278   0.000   0.000  0.00  0.00    +0.000 A 
ATOM      2  C   UNL     1       5.278  -0.825   0.000  0.00  0.00    +0.000 A 
ATOM      3  C   UNL     1       5.993   0.412   0.000  0.00  0.00    +0.000 A 
ATOM      4  C   UNL     1       6.707   0.000   0.000  0.00  0.00    +0.000 A 
ATOM      5  C   UNL     1       5.993  -1.238   0.000  0.00  0.00    +0.000 A 
ATOM      6  C   UNL     1       6.707  -0.825   0.000  0.00  0.00    +0.000 A 
ENDROOT
BRANCH   1   9
ATOM      7  O   UNL     1       3.849   0.000   0.000  0.00  0.00    +0.000 OA
ATOM      8  O   UNL     1       3.849   2.475   0.000  0.00  0.00    +0.000 OA
ATOM      9  C   UNL     1       4.564   0.412   0.000  0.00  0.00    +0.000 A 
ATOM     10  C   UNL     1       3.135   1.238   0.000  0.00  0.00    +0.000 A 
ATOM     11  C   UNL     1       3.135   0.412   0.000  0.00  0.00    +0.000 A 
ATOM     12  C   UNL     1       4.564   1.238   0.000  0.00  0.00    +0.000 A 
ATOM     13  C   UNL     1       3.849   1.650   0.000  0.00  0.00    +0.000 A 
ATOM     14  C   UNL     1       2.397   1.679   0.000  0.00  0.00    +0.000 A 
ATOM     15  C   UNL     1       2.397  -0.029   0.000  0.00  0.00    +0.000 A 
ATOM     16  C   UNL     1       1.650   1.255   0.000  0.00  0.00    +0.000 A 
ATOM     17  C   UNL     1       1.650   0.395   0.000  0.00  0.00    +0.000 A 
ENDBRANCH   1   9
BRANCH   4  18
ATOM     18  O   UNL     1       7.422   0.412   0.000  0.00  0.00    +0.000 OA
ATOM     19  C   UNL     1       7.422   1.238   0.000  0.00  0.00    +0.000 C 
ENDBRANCH   4  18
BRANCH   5  20
ATOM     20  O   UNL     1       5.993  -2.062   0.000  0.00  0.00    +0.000 OA
ATOM     21  C   UNL     1       5.278  -2.475   0.000  0.00  0.00    +0.000 C 
ENDBRANCH   5  20
BRANCH   6  22
ATOM     22  O   UNL     1       7.422  -1.238   0.000  0.00  0.00    +0.000 OA
ATOM     23  C   UNL     1       8.136  -0.825   0.000  0.00  0.00    +0.000 C 
ENDBRANCH   6  22
TORSDOF 4
