REMARK  Name = 14394138
REMARK  4 active torsions:
REMARK  status: ('A' for Active; 'I' for Inactive)
REMARK    1  A    between atoms: O_2  and  C_12
REMARK    2  A    between atoms: O_3  and  C_16
REMARK    3  A    between atoms: O_4  and  C_18
REMARK    4  A    between atoms: C_6  and  C_9
REMARK                            x       y       z     vdW  Elec       q    Type
REMARK                         _______ _______ _______ _____ _____    ______ ____
ROOT
ATOM      1  C   UNL     1       6.435  -0.192   0.000  0.00  0.00    +0.000 A 
ATOM      2  C   UNL     1       6.435   0.633   0.000  0.00  0.00    +0.000 A 
ATOM      3  C   UNL     1       7.150  -0.605   0.000  0.00  0.00    +0.000 A 
ATOM      4  C   UNL     1       7.864  -0.192   0.000  0.00  0.00    +0.000 A 
ATOM      5  C   UNL     1       7.150   1.046   0.000  0.00  0.00    +0.000 A 
ATOM      6  C   UNL     1       7.864   0.633   0.000  0.00  0.00    +0.000 A 
ENDROOT
BRANCH   1   9
ATOM      7  O   UNL     1       5.006  -1.842   0.000  0.00  0.00    +0.000 OA
ATOM      8  O   UNL     1       2.094  -1.862   0.000  0.00  0.00    +0.000 OA
ATOM      9  C   UNL     1       5.721  -0.605   0.000  0.00  0.00    +0.000 C 
ATOM     10  C   UNL     1       5.006  -0.192   0.000  0.00  0.00    +0.000 C 
ATOM     11  C   UNL     1       5.721  -1.429   0.000  0.00  0.00    +0.000 C 
ATOM     12  C   UNL     1       4.292  -0.605   0.000  0.00  0.00    +0.000 A 
ATOM     13  C   UNL     1       4.292  -1.429   0.000  0.00  0.00    +0.000 A 
ATOM     14  C   UNL     1       3.554  -0.163   0.000  0.00  0.00    +0.000 A 
ATOM     15  C   UNL     1       3.554  -1.871   0.000  0.00  0.00    +0.000 A 
ATOM     16  C   UNL     1       2.807  -0.587   0.000  0.00  0.00    +0.000 A 
ATOM     17  C   UNL     1       2.807  -1.447   0.000  0.00  0.00    +0.000 A 
ENDBRANCH   1   9
BRANCH   2  18
ATOM     18  O   UNL     1       5.721   1.046   0.000  0.00  0.00    +0.000 OA
ATOM     19  C   UNL     1       5.721   1.871   0.000  0.00  0.00    +0.000 C 
ENDBRANCH   2  18
BRANCH   4  20
ATOM     20  O   UNL     1       8.579  -0.605   0.000  0.00  0.00    +0.000 OA
ATOM     21  C   UNL     1       8.579  -1.429   0.000  0.00  0.00    +0.000 C 
ENDBRANCH   4  20
BRANCH   6  22
ATOM     22  O   UNL     1       8.579   1.046   0.000  0.00  0.00    +0.000 OA
ATOM     23  C   UNL     1       8.579   1.871   0.000  0.00  0.00    +0.000 C 
ENDBRANCH   6  22
TORSDOF 4
