REMARK  Name = 320054
REMARK  3 active torsions:
REMARK  status: ('A' for Active; 'I' for Inactive)
REMARK    1  A    between atoms: O_4  and  C_17
REMARK    2  A    between atoms: O_5  and  C_21
REMARK    3  A    between atoms: C_7  and  C_9
REMARK                            x       y       z     vdW  Elec       q    Type
REMARK                         _______ _______ _______ _____ _____    ______ ____
ROOT
ATOM      1  O   UNL     1       5.278  -0.223   0.000  0.00  0.00    +0.000 OA
ATOM      2  O   UNL     1       5.278   2.252   0.000  0.00  0.00    +0.000 OA
ATOM      3  O   UNL     1       3.836   2.280   0.000  0.00  0.00    +0.000 OA
ATOM      4  C   UNL     1       5.993   0.189   0.000  0.00  0.00    +0.000 C 
ATOM      5  C   UNL     1       5.993   1.014   0.000  0.00  0.00    +0.000 C 
ATOM      6  C   UNL     1       4.564   1.014   0.000  0.00  0.00    +0.000 A 
ATOM      7  C   UNL     1       5.278   1.427   0.000  0.00  0.00    +0.000 C 
ATOM      8  C   UNL     1       4.564   0.189   0.000  0.00  0.00    +0.000 A 
ATOM      9  C   UNL     1       3.826   1.456   0.000  0.00  0.00    +0.000 A 
ATOM     10  C   UNL     1       3.826  -0.252   0.000  0.00  0.00    +0.000 A 
ATOM     11  C   UNL     1       3.079   0.172   0.000  0.00  0.00    +0.000 A 
ATOM     12  C   UNL     1       3.079   1.032   0.000  0.00  0.00    +0.000 A 
ENDROOT
BRANCH   4  14
ATOM     13  O   UNL     1       7.422  -2.286   0.000  0.00  0.00    +0.000 OA
ATOM     14  C   UNL     1       6.707  -0.223   0.000  0.00  0.00    +0.000 A 
ATOM     15  C   UNL     1       6.707  -1.048   0.000  0.00  0.00    +0.000 A 
ATOM     16  C   UNL     1       7.422   0.189   0.000  0.00  0.00    +0.000 A 
ATOM     17  C   UNL     1       7.422  -1.461   0.000  0.00  0.00    +0.000 A 
ATOM     18  C   UNL     1       8.136  -0.223   0.000  0.00  0.00    +0.000 A 
ATOM     19  C   UNL     1       8.136  -1.048   0.000  0.00  0.00    +0.000 A 
BRANCH  19  20
ATOM     20  O   UNL     1       8.851  -1.461   0.000  0.00  0.00    +0.000 OA
ATOM     21  C   UNL     1       9.565  -1.048   0.000  0.00  0.00    +0.000 C 
ENDBRANCH  19  20
ENDBRANCH   4  14
BRANCH  11  22
ATOM     22  O   UNL     1       2.366  -0.243   0.000  0.00  0.00    +0.000 OA
ATOM     23  C   UNL     1       1.650   0.167   0.000  0.00  0.00    +0.000 C 
ENDBRANCH  11  22
TORSDOF 3
