REMARK  Name = 42608054
REMARK  4 active torsions:
REMARK  status: ('A' for Active; 'I' for Inactive)
REMARK    1  A    between atoms: O_2  and  C_13
REMARK    2  A    between atoms: O_4  and  C_14
REMARK    3  A    between atoms: O_5  and  C_21
REMARK    4  A    between atoms: C_7  and  C_9
REMARK                            x       y       z     vdW  Elec       q    Type
REMARK                         _______ _______ _______ _____ _____    ______ ____
ROOT
ATOM      1  O   UNL     1       5.006  -0.431   0.000  0.00  0.00    +0.000 OA
ATOM      2  O   UNL     1       5.006   2.044   0.000  0.00  0.00    +0.000 OA
ATOM      3  O   UNL     1       2.094  -0.451   0.000  0.00  0.00    +0.000 OA
ATOM      4  C   UNL     1       5.721  -0.018   0.000  0.00  0.00    +0.000 C 
ATOM      5  C   UNL     1       5.721   0.807   0.000  0.00  0.00    +0.000 C 
ATOM      6  C   UNL     1       4.292   0.807   0.000  0.00  0.00    +0.000 A 
ATOM      7  C   UNL     1       5.006   1.219   0.000  0.00  0.00    +0.000 C 
ATOM      8  C   UNL     1       4.292  -0.018   0.000  0.00  0.00    +0.000 A 
ATOM      9  C   UNL     1       3.554   1.248   0.000  0.00  0.00    +0.000 A 
ATOM     10  C   UNL     1       3.554  -0.459   0.000  0.00  0.00    +0.000 A 
ATOM     11  C   UNL     1       2.807   0.824   0.000  0.00  0.00    +0.000 A 
ATOM     12  C   UNL     1       2.807  -0.036   0.000  0.00  0.00    +0.000 A 
ENDROOT
BRANCH   4  13
ATOM     13  C   UNL     1       6.435  -0.431   0.000  0.00  0.00    +0.000 A 
ATOM     14  C   UNL     1       6.435  -1.256   0.000  0.00  0.00    +0.000 A 
ATOM     15  C   UNL     1       7.150  -0.018   0.000  0.00  0.00    +0.000 A 
ATOM     16  C   UNL     1       7.150  -1.668   0.000  0.00  0.00    +0.000 A 
ATOM     17  C   UNL     1       7.864  -0.431   0.000  0.00  0.00    +0.000 A 
ATOM     18  C   UNL     1       7.864  -1.256   0.000  0.00  0.00    +0.000 A 
BRANCH  14  19
ATOM     19  O   UNL     1       5.721  -1.668   0.000  0.00  0.00    +0.000 OA
ATOM     20  C   UNL     1       5.721  -2.493   0.000  0.00  0.00    +0.000 C 
ENDBRANCH  14  19
BRANCH  18  21
ATOM     21  O   UNL     1       8.579  -1.668   0.000  0.00  0.00    +0.000 OA
ATOM     22  C   UNL     1       9.293  -1.256   0.000  0.00  0.00    +0.000 C 
ENDBRANCH  18  21
ENDBRANCH   4  13
BRANCH   9  23
ATOM     23  O   UNL     1       3.564   2.073   0.000  0.00  0.00    +0.000 OA
ATOM     24  C   UNL     1       2.854   2.493   0.000  0.00  0.00    +0.000 C 
ENDBRANCH   9  23
TORSDOF 4
