REMARK  Name = 44257507
REMARK  4 active torsions:
REMARK  status: ('A' for Active; 'I' for Inactive)
REMARK    1  A    between atoms: O_2  and  C_11
REMARK    2  A    between atoms: C_5  and  C_8
REMARK    3  A    between atoms: C_13  and  C_18
REMARK    4  A    between atoms: C_18  and  C_21
REMARK                            x       y       z     vdW  Elec       q    Type
REMARK                         _______ _______ _______ _____ _____    ______ ____
ROOT
ATOM      1  O   UNL     1       8.579   0.221   0.000  0.00  0.00    +0.000 OA
ATOM      2  C   UNL     1       6.435  -1.017   0.000  0.00  0.00    +0.000 A 
ATOM      3  C   UNL     1       6.435  -0.192   0.000  0.00  0.00    +0.000 A 
ATOM      4  C   UNL     1       7.150  -1.429   0.000  0.00  0.00    +0.000 A 
ATOM      5  C   UNL     1       7.150   0.221   0.000  0.00  0.00    +0.000 A 
ATOM      6  C   UNL     1       7.864  -0.192   0.000  0.00  0.00    +0.000 A 
ATOM      7  C   UNL     1       7.864  -1.017   0.000  0.00  0.00    +0.000 A 
ENDROOT
BRANCH   2  10
ATOM      8  O   UNL     1       5.006  -2.667   0.000  0.00  0.00    +0.000 OA
ATOM      9  O   UNL     1       2.094  -2.687   0.000  0.00  0.00    +0.000 OA
ATOM     10  C   UNL     1       5.721  -1.429   0.000  0.00  0.00    +0.000 C 
ATOM     11  C   UNL     1       5.006  -1.017   0.000  0.00  0.00    +0.000 C 
ATOM     12  C   UNL     1       5.721  -2.255   0.000  0.00  0.00    +0.000 C 
ATOM     13  C   UNL     1       4.292  -1.429   0.000  0.00  0.00    +0.000 A 
ATOM     14  C   UNL     1       4.292  -2.255   0.000  0.00  0.00    +0.000 A 
ATOM     15  C   UNL     1       3.554  -0.988   0.000  0.00  0.00    +0.000 A 
ATOM     16  C   UNL     1       3.554  -2.696   0.000  0.00  0.00    +0.000 A 
ATOM     17  C   UNL     1       2.807  -1.412   0.000  0.00  0.00    +0.000 A 
ATOM     18  C   UNL     1       2.807  -2.272   0.000  0.00  0.00    +0.000 A 
ENDBRANCH   2  10
BRANCH   3  19
ATOM     19  O   UNL     1       5.721   0.221   0.000  0.00  0.00    +0.000 OA
ATOM     20  C   UNL     1       5.721   1.046   0.000  0.00  0.00    +0.000 C 
ENDBRANCH   3  19
BRANCH   5  21
ATOM     21  C   UNL     1       7.150   1.046   0.000  0.00  0.00    +0.000 C 
BRANCH  21  22
ATOM     22  C   UNL     1       7.864   1.458   0.000  0.00  0.00    +0.000 C 
ATOM     23  C   UNL     1       7.864   2.283   0.000  0.00  0.00    +0.000 C 
ATOM     24  C   UNL     1       8.579   2.696   0.000  0.00  0.00    +0.000 C 
ATOM     25  C   UNL     1       7.150   2.696   0.000  0.00  0.00    +0.000 C 
ENDBRANCH  21  22
ENDBRANCH   5  21
TORSDOF 4
