REMARK  Name = 131834220
REMARK  3 active torsions:
REMARK  status: ('A' for Active; 'I' for Inactive)
REMARK    1  A    between atoms: S_1  and  C_15
REMARK    2  A    between atoms: O_5  and  C_23
REMARK    3  A    between atoms: C_10  and  C_14
REMARK                            x       y       z     vdW  Elec       q    Type
REMARK                         _______ _______ _______ _____ _____    ______ ____
ROOT
ATOM      1  O   UNL     1       5.006  -0.559   0.000  0.00  0.00    +0.000 OA
ATOM      2  O   UNL     1       6.435   1.091   0.000  0.00  0.00    +0.000 OA
ATOM      3  O   UNL     1       2.094  -0.579   0.000  0.00  0.00    +0.000 OA
ATOM      4  C   UNL     1       5.721   0.679   0.000  0.00  0.00    +0.000 C 
ATOM      5  C   UNL     1       5.721  -0.146   0.000  0.00  0.00    +0.000 C 
ATOM      6  C   UNL     1       5.006   1.091   0.000  0.00  0.00    +0.000 C 
ATOM      7  C   UNL     1       4.292   0.679   0.000  0.00  0.00    +0.000 A 
ATOM      8  C   UNL     1       4.292  -0.146   0.000  0.00  0.00    +0.000 A 
ATOM      9  C   UNL     1       3.554   1.120   0.000  0.00  0.00    +0.000 A 
ATOM     10  C   UNL     1       3.554  -0.587   0.000  0.00  0.00    +0.000 A 
ATOM     11  C   UNL     1       2.807   0.696   0.000  0.00  0.00    +0.000 A 
ATOM     12  C   UNL     1       2.807  -0.163   0.000  0.00  0.00    +0.000 A 
ENDROOT
BRANCH   5  14
ATOM     13  O   UNL     1       7.150  -2.621   0.000  0.00  0.00    +0.000 OA
ATOM     14  C   UNL     1       6.435  -0.559   0.000  0.00  0.00    +0.000 A 
ATOM     15  C   UNL     1       6.435  -1.384   0.000  0.00  0.00    +0.000 A 
ATOM     16  C   UNL     1       7.150  -0.146   0.000  0.00  0.00    +0.000 A 
ATOM     17  C   UNL     1       7.150  -1.796   0.000  0.00  0.00    +0.000 A 
ATOM     18  C   UNL     1       7.864  -0.559   0.000  0.00  0.00    +0.000 A 
ATOM     19  C   UNL     1       7.864  -1.384   0.000  0.00  0.00    +0.000 A 
BRANCH  19  20
ATOM     20  O   UNL     1       8.579  -1.796   0.000  0.00  0.00    +0.000 OA
ATOM     21  C   UNL     1       9.293  -1.384   0.000  0.00  0.00    +0.000 C 
ENDBRANCH  19  20
ENDBRANCH   5  14
BRANCH   9  22
ATOM     22  S   UNL     1       3.564   1.945   0.000  0.00  0.00    +0.000 S 
ATOM     23  O   UNL     1       2.854   2.365   0.000  0.00  0.00    +0.000 OA
ATOM     24  O   UNL     1       4.283   2.349   0.000  0.00  0.00    +0.000 OA
ENDBRANCH   9  22
TORSDOF 3
