REMARK  Name = 5464461
REMARK  4 active torsions:
REMARK  status: ('A' for Active; 'I' for Inactive)
REMARK    1  A    between atoms: O_2  and  C_12
REMARK    2  A    between atoms: O_3  and  C_17
REMARK    3  A    between atoms: O_7  and  C_21
REMARK    4  A    between atoms: C_11  and  C_14
REMARK                            x       y       z     vdW  Elec       q    Type
REMARK                         _______ _______ _______ _____ _____    ______ ____
ROOT
ATOM      1  O   UNL     1       5.278  -0.145   0.000  0.00  0.00    +0.000 OA
ATOM      2  O   UNL     1       3.836   2.359   0.000  0.00  0.00    +0.000 OA
ATOM      3  O   UNL     1       5.278   2.330   0.000  0.00  0.00    +0.000 OA
ATOM      4  O   UNL     1       2.366  -0.165   0.000  0.00  0.00    +0.000 OA
ATOM      5  C   UNL     1       4.564   1.093   0.000  0.00  0.00    +0.000 A 
ATOM      6  C   UNL     1       4.564   0.268   0.000  0.00  0.00    +0.000 A 
ATOM      7  C   UNL     1       5.993   0.268   0.000  0.00  0.00    +0.000 A 
ATOM      8  C   UNL     1       5.993   1.093   0.000  0.00  0.00    +0.000 A 
ATOM      9  C   UNL     1       5.278   1.505   0.000  0.00  0.00    +0.000 A 
ATOM     10  C   UNL     1       3.826   1.534   0.000  0.00  0.00    +0.000 A 
ATOM     11  C   UNL     1       3.826  -0.173   0.000  0.00  0.00    +0.000 A 
ATOM     12  C   UNL     1       3.079   1.110   0.000  0.00  0.00    +0.000 A 
ATOM     13  C   UNL     1       3.079   0.251   0.000  0.00  0.00    +0.000 A 
ENDROOT
BRANCH   7  15
ATOM     14  O   UNL     1       8.851  -1.382   0.000  0.00  0.00    +0.000 OA
ATOM     15  C   UNL     1       6.707  -0.145   0.000  0.00  0.00    +0.000 A 
ATOM     16  C   UNL     1       6.707  -0.970   0.000  0.00  0.00    +0.000 A 
ATOM     17  C   UNL     1       7.422   0.268   0.000  0.00  0.00    +0.000 A 
ATOM     18  C   UNL     1       7.422  -1.382   0.000  0.00  0.00    +0.000 A 
ATOM     19  C   UNL     1       8.136  -0.145   0.000  0.00  0.00    +0.000 A 
ATOM     20  C   UNL     1       8.136  -0.970   0.000  0.00  0.00    +0.000 A 
BRANCH  18  21
ATOM     21  O   UNL     1       7.422  -2.207   0.000  0.00  0.00    +0.000 OA
ATOM     22  C   UNL     1       8.136  -2.620   0.000  0.00  0.00    +0.000 C 
ENDBRANCH  18  21
ENDBRANCH   7  15
BRANCH   8  23
ATOM     23  O   UNL     1       6.707   1.505   0.000  0.00  0.00    +0.000 OA
ATOM     24  C   UNL     1       6.707   2.330   0.000  0.00  0.00    +0.000 C 
ENDBRANCH   8  23
BRANCH  12  25
ATOM     25  O   UNL     1       2.366   1.525   0.000  0.00  0.00    +0.000 OA
ATOM     26  C   UNL     1       1.650   1.115   0.000  0.00  0.00    +0.000 C 
ENDBRANCH  12  25
TORSDOF 4
