REMARK  Name = 42608105
REMARK  3 active torsions:
REMARK  status: ('A' for Active; 'I' for Inactive)
REMARK    1  A    between atoms: O_5  and  C_19
REMARK    2  A    between atoms: O_7  and  C_22
REMARK    3  A    between atoms: C_9  and  C_11
REMARK                            x       y       z     vdW  Elec       q    Type
REMARK                         _______ _______ _______ _____ _____    ______ ____
ROOT
ATOM      1  O   UNL     1       5.245  -0.146   0.000  0.00  0.00    +0.000 OA
ATOM      2  O   UNL     1       5.236   2.386   0.000  0.00  0.00    +0.000 OA
ATOM      3  O   UNL     1       3.793   2.357   0.000  0.00  0.00    +0.000 OA
ATOM      4  O   UNL     1       2.364  -0.118   0.000  0.00  0.00    +0.000 OA
ATOM      5  C   UNL     1       5.993   0.277   0.000  0.00  0.00    +0.000 C 
ATOM      6  C   UNL     1       5.993   1.137   0.000  0.00  0.00    +0.000 C 
ATOM      7  C   UNL     1       4.508   1.120   0.000  0.00  0.00    +0.000 A 
ATOM      8  C   UNL     1       5.245   1.561   0.000  0.00  0.00    +0.000 C 
ATOM      9  C   UNL     1       4.508   0.295   0.000  0.00  0.00    +0.000 A 
ATOM     10  C   UNL     1       3.793   1.532   0.000  0.00  0.00    +0.000 A 
ATOM     11  C   UNL     1       3.793  -0.118   0.000  0.00  0.00    +0.000 A 
ATOM     12  C   UNL     1       3.079   1.120   0.000  0.00  0.00    +0.000 A 
ATOM     13  C   UNL     1       3.079   0.295   0.000  0.00  0.00    +0.000 A 
ENDROOT
BRANCH   5  16
ATOM     14  O   UNL     1       8.916   0.105   0.000  0.00  0.00    +0.000 OA
ATOM     15  O   UNL     1       8.911  -1.223   0.000  0.00  0.00    +0.000 OA
ATOM     16  C   UNL     1       6.706  -0.138   0.000  0.00  0.00    +0.000 A 
ATOM     17  C   UNL     1       7.422   0.272   0.000  0.00  0.00    +0.000 A 
ATOM     18  C   UNL     1       6.703  -0.963   0.000  0.00  0.00    +0.000 A 
ATOM     19  C   UNL     1       8.135  -0.143   0.000  0.00  0.00    +0.000 A 
ATOM     20  C   UNL     1       8.132  -0.968   0.000  0.00  0.00    +0.000 A 
ATOM     21  C   UNL     1       7.415  -1.378   0.000  0.00  0.00    +0.000 A 
ATOM     22  C   UNL     1       9.395  -0.561   0.000  0.00  0.00    +0.000 C 
BRANCH  21  23
ATOM     23  O   UNL     1       7.412  -2.203   0.000  0.00  0.00    +0.000 OA
ATOM     24  C   UNL     1       6.696  -2.613   0.000  0.00  0.00    +0.000 C 
ENDBRANCH  21  23
ENDBRANCH   5  16
BRANCH  12  25
ATOM     25  O   UNL     1       2.364   1.532   0.000  0.00  0.00    +0.000 OA
ATOM     26  C   UNL     1       1.650   1.120   0.000  0.00  0.00    +0.000 C 
ENDBRANCH  12  25
TORSDOF 3
