REMARK  Name = 5491643
REMARK  5 active torsions:
REMARK  status: ('A' for Active; 'I' for Inactive)
REMARK    1  A    between atoms: O_2  and  C_11
REMARK    2  A    between atoms: O_3  and  C_15
REMARK    3  A    between atoms: O_6  and  C_20
REMARK    4  A    between atoms: O_7  and  C_21
REMARK    5  A    between atoms: C_10  and  C_12
REMARK                            x       y       z     vdW  Elec       q    Type
REMARK                         _______ _______ _______ _____ _____    ______ ____
ROOT
ATOM      1  O   UNL     1       5.245  -0.222   0.000  0.00  0.00    +0.000 OA
ATOM      2  O   UNL     1       2.364  -0.194   0.000  0.00  0.00    +0.000 OA
ATOM      3  O   UNL     1       5.236   2.310   0.000  0.00  0.00    +0.000 OA
ATOM      4  C   UNL     1       4.508   1.044   0.000  0.00  0.00    +0.000 A 
ATOM      5  C   UNL     1       4.508   0.219   0.000  0.00  0.00    +0.000 A 
ATOM      6  C   UNL     1       5.993   0.202   0.000  0.00  0.00    +0.000 A 
ATOM      7  C   UNL     1       3.793   1.456   0.000  0.00  0.00    +0.000 A 
ATOM      8  C   UNL     1       5.245   1.485   0.000  0.00  0.00    +0.000 A 
ATOM      9  C   UNL     1       5.993   1.061   0.000  0.00  0.00    +0.000 A 
ATOM     10  C   UNL     1       3.079   1.044   0.000  0.00  0.00    +0.000 A 
ATOM     11  C   UNL     1       3.793  -0.194   0.000  0.00  0.00    +0.000 A 
ATOM     12  C   UNL     1       3.079   0.219   0.000  0.00  0.00    +0.000 A 
ENDROOT
BRANCH   6  13
ATOM     13  C   UNL     1       6.706  -0.213   0.000  0.00  0.00    +0.000 A 
ATOM     14  C   UNL     1       6.703  -1.038   0.000  0.00  0.00    +0.000 A 
ATOM     15  C   UNL     1       7.422   0.196   0.000  0.00  0.00    +0.000 A 
ATOM     16  C   UNL     1       7.415  -1.454   0.000  0.00  0.00    +0.000 A 
ATOM     17  C   UNL     1       8.132  -1.044   0.000  0.00  0.00    +0.000 A 
ATOM     18  C   UNL     1       8.135  -0.219   0.000  0.00  0.00    +0.000 A 
BRANCH  16  19
ATOM     19  O   UNL     1       7.412  -2.279   0.000  0.00  0.00    +0.000 OA
ATOM     20  C   UNL     1       8.125  -2.694   0.000  0.00  0.00    +0.000 C 
ENDBRANCH  16  19
BRANCH  17  21
ATOM     21  O   UNL     1       8.844  -1.459   0.000  0.00  0.00    +0.000 OA
ATOM     22  C   UNL     1       9.560  -1.050   0.000  0.00  0.00    +0.000 C 
ENDBRANCH  17  21
ENDBRANCH   6  13
BRANCH   7  23
ATOM     23  O   UNL     1       3.793   2.281   0.000  0.00  0.00    +0.000 OA
ATOM     24  C   UNL     1       3.079   2.694   0.000  0.00  0.00    +0.000 C 
ENDBRANCH   7  23
BRANCH  10  25
ATOM     25  O   UNL     1       2.364   1.456   0.000  0.00  0.00    +0.000 OA
ATOM     26  C   UNL     1       1.650   1.044   0.000  0.00  0.00    +0.000 C 
ENDBRANCH  10  25
TORSDOF 5
