REMARK  Name = 44257591
REMARK  5 active torsions:
REMARK  status: ('A' for Active; 'I' for Inactive)
REMARK    1  A    between atoms: O_2  and  C_12
REMARK    2  A    between atoms: O_3  and  C_16
REMARK    3  A    between atoms: O_4  and  C_20
REMARK    4  A    between atoms: O_5  and  C_21
REMARK    5  A    between atoms: C_10  and  C_11
REMARK                            x       y       z     vdW  Elec       q    Type
REMARK                         _______ _______ _______ _____ _____    ______ ____
ROOT
ATOM      1  O   UNL     1       5.278  -0.078   0.000  0.00  0.00    +0.000 OA
ATOM      2  O   UNL     1       5.278   2.397   0.000  0.00  0.00    +0.000 OA
ATOM      3  C   UNL     1       4.564   0.334   0.000  0.00  0.00    +0.000 A 
ATOM      4  C   UNL     1       4.564   1.159   0.000  0.00  0.00    +0.000 A 
ATOM      5  C   UNL     1       5.993   0.334   0.000  0.00  0.00    +0.000 A 
ATOM      6  C   UNL     1       3.826  -0.107   0.000  0.00  0.00    +0.000 A 
ATOM      7  C   UNL     1       5.278   1.572   0.000  0.00  0.00    +0.000 A 
ATOM      8  C   UNL     1       5.993   1.159   0.000  0.00  0.00    +0.000 A 
ATOM      9  C   UNL     1       3.826   1.600   0.000  0.00  0.00    +0.000 A 
ATOM     10  C   UNL     1       3.079   0.317   0.000  0.00  0.00    +0.000 A 
ATOM     11  C   UNL     1       3.079   1.176   0.000  0.00  0.00    +0.000 A 
ENDROOT
BRANCH   5  13
ATOM     12  O   UNL     1       7.422  -2.141   0.000  0.00  0.00    +0.000 OA
ATOM     13  C   UNL     1       6.707  -0.078   0.000  0.00  0.00    +0.000 A 
ATOM     14  C   UNL     1       7.422   0.334   0.000  0.00  0.00    +0.000 A 
ATOM     15  C   UNL     1       6.707  -0.903   0.000  0.00  0.00    +0.000 A 
ATOM     16  C   UNL     1       8.136  -0.078   0.000  0.00  0.00    +0.000 A 
ATOM     17  C   UNL     1       8.136  -0.903   0.000  0.00  0.00    +0.000 A 
ATOM     18  C   UNL     1       7.422  -1.316   0.000  0.00  0.00    +0.000 A 
BRANCH  16  19
ATOM     19  O   UNL     1       8.851   0.334   0.000  0.00  0.00    +0.000 OA
ATOM     20  C   UNL     1       8.851   1.159   0.000  0.00  0.00    +0.000 C 
ENDBRANCH  16  19
BRANCH  17  21
ATOM     21  O   UNL     1       8.851  -1.316   0.000  0.00  0.00    +0.000 OA
ATOM     22  C   UNL     1       9.565  -0.903   0.000  0.00  0.00    +0.000 C 
ENDBRANCH  17  21
ENDBRANCH   5  13
BRANCH   6  23
ATOM     23  O   UNL     1       3.836  -0.932   0.000  0.00  0.00    +0.000 OA
ATOM     24  C   UNL     1       3.126  -1.353   0.000  0.00  0.00    +0.000 C 
ENDBRANCH   6  23
BRANCH  10  25
ATOM     25  O   UNL     1       2.366  -0.098   0.000  0.00  0.00    +0.000 OA
ATOM     26  C   UNL     1       1.650   0.311   0.000  0.00  0.00    +0.000 C 
ENDBRANCH  10  25
TORSDOF 5
