REMARK  Name = 75072284
REMARK  5 active torsions:
REMARK  status: ('A' for Active; 'I' for Inactive)
REMARK    1  A    between atoms: O_4  and  C_18
REMARK    2  A    between atoms: O_5  and  C_19
REMARK    3  A    between atoms: O_6  and  C_20
REMARK    4  A    between atoms: O_7  and  C_22
REMARK    5  A    between atoms: C_8  and  C_12
REMARK                            x       y       z     vdW  Elec       q    Type
REMARK                         _______ _______ _______ _____ _____    ______ ____
ROOT
ATOM      1  O   UNL     1       5.278   0.398   0.000  0.00  0.00    +0.000 OA
ATOM      2  O   UNL     1       3.836  -0.455   0.000  0.00  0.00    +0.000 OA
ATOM      3  C   UNL     1       5.993   0.811   0.000  0.00  0.00    +0.000 C 
ATOM      4  C   UNL     1       5.993   1.636   0.000  0.00  0.00    +0.000 C 
ATOM      5  C   UNL     1       5.278   2.048   0.000  0.00  0.00    +0.000 C 
ATOM      6  C   UNL     1       4.564   1.636   0.000  0.00  0.00    +0.000 A 
ATOM      7  C   UNL     1       4.564   0.811   0.000  0.00  0.00    +0.000 A 
ATOM      8  C   UNL     1       3.826   2.077   0.000  0.00  0.00    +0.000 A 
ATOM      9  C   UNL     1       3.826   0.370   0.000  0.00  0.00    +0.000 A 
ATOM     10  C   UNL     1       3.079   0.794   0.000  0.00  0.00    +0.000 A 
ATOM     11  C   UNL     1       3.079   1.653   0.000  0.00  0.00    +0.000 A 
ENDROOT
BRANCH   3  13
ATOM     12  O   UNL     1       5.993  -0.839   0.000  0.00  0.00    +0.000 OA
ATOM     13  C   UNL     1       6.707   0.398   0.000  0.00  0.00    +0.000 A 
ATOM     14  C   UNL     1       6.707  -0.427   0.000  0.00  0.00    +0.000 A 
ATOM     15  C   UNL     1       7.422   0.811   0.000  0.00  0.00    +0.000 A 
ATOM     16  C   UNL     1       7.422  -0.839   0.000  0.00  0.00    +0.000 A 
ATOM     17  C   UNL     1       8.136   0.398   0.000  0.00  0.00    +0.000 A 
ATOM     18  C   UNL     1       8.136  -0.427   0.000  0.00  0.00    +0.000 A 
BRANCH  16  19
ATOM     19  O   UNL     1       7.422  -1.664   0.000  0.00  0.00    +0.000 OA
ATOM     20  C   UNL     1       8.136  -2.077   0.000  0.00  0.00    +0.000 C 
ENDBRANCH  16  19
BRANCH  17  21
ATOM     21  O   UNL     1       8.851   0.811   0.000  0.00  0.00    +0.000 OA
ATOM     22  C   UNL     1       8.851   1.636   0.000  0.00  0.00    +0.000 C 
ENDBRANCH  17  21
BRANCH  18  23
ATOM     23  O   UNL     1       8.851  -0.839   0.000  0.00  0.00    +0.000 OA
ATOM     24  C   UNL     1       9.565  -0.427   0.000  0.00  0.00    +0.000 C 
ENDBRANCH  18  23
ENDBRANCH   3  13
BRANCH  10  25
ATOM     25  O   UNL     1       2.366   0.378   0.000  0.00  0.00    +0.000 OA
ATOM     26  C   UNL     1       1.650   0.788   0.000  0.00  0.00    +0.000 C 
ENDBRANCH  10  25
TORSDOF 5
