REMARK  Name = 131753027
REMARK  5 active torsions:
REMARK  status: ('A' for Active; 'I' for Inactive)
REMARK    1  A    between atoms: O_3  and  C_14
REMARK    2  A    between atoms: O_4  and  C_17
REMARK    3  A    between atoms: C_6  and  C_9
REMARK    4  A    between atoms: C_15  and  C_19
REMARK    5  A    between atoms: C_19  and  C_22
REMARK                            x       y       z     vdW  Elec       q    Type
REMARK                         _______ _______ _______ _____ _____    ______ ____
ROOT
ATOM      1  O   UNL     1       7.150  -1.429   0.000  0.00  0.00    +0.000 OA
ATOM      2  C   UNL     1       6.435  -0.192   0.000  0.00  0.00    +0.000 A 
ATOM      3  C   UNL     1       7.150  -0.605   0.000  0.00  0.00    +0.000 A 
ATOM      4  C   UNL     1       6.435   0.633   0.000  0.00  0.00    +0.000 A 
ATOM      5  C   UNL     1       7.864  -0.192   0.000  0.00  0.00    +0.000 A 
ATOM      6  C   UNL     1       7.864   0.633   0.000  0.00  0.00    +0.000 A 
ATOM      7  C   UNL     1       7.150   1.046   0.000  0.00  0.00    +0.000 A 
ENDROOT
BRANCH   2  10
ATOM      8  O   UNL     1       5.006  -1.842   0.000  0.00  0.00    +0.000 OA
ATOM      9  O   UNL     1       2.094  -1.862   0.000  0.00  0.00    +0.000 OA
ATOM     10  C   UNL     1       5.721  -0.605   0.000  0.00  0.00    +0.000 C 
ATOM     11  C   UNL     1       5.006  -0.192   0.000  0.00  0.00    +0.000 C 
ATOM     12  C   UNL     1       5.721  -1.429   0.000  0.00  0.00    +0.000 C 
ATOM     13  C   UNL     1       4.292  -0.605   0.000  0.00  0.00    +0.000 A 
ATOM     14  C   UNL     1       4.292  -1.429   0.000  0.00  0.00    +0.000 A 
ATOM     15  C   UNL     1       3.554  -0.163   0.000  0.00  0.00    +0.000 A 
ATOM     16  C   UNL     1       3.554  -1.871   0.000  0.00  0.00    +0.000 A 
ATOM     17  C   UNL     1       2.807  -0.587   0.000  0.00  0.00    +0.000 A 
ATOM     18  C   UNL     1       2.807  -1.447   0.000  0.00  0.00    +0.000 A 
BRANCH  15  19
ATOM     19  O   UNL     1       3.564   0.662   0.000  0.00  0.00    +0.000 OA
ATOM     20  C   UNL     1       2.854   1.082   0.000  0.00  0.00    +0.000 C 
ENDBRANCH  15  19
ENDBRANCH   2  10
BRANCH   6  21
ATOM     21  O   UNL     1       8.579   1.046   0.000  0.00  0.00    +0.000 OA
ATOM     22  C   UNL     1       8.579   1.871   0.000  0.00  0.00    +0.000 C 
ENDBRANCH   6  21
BRANCH   5  23
ATOM     23  C   UNL     1       8.579  -0.605   0.000  0.00  0.00    +0.000 C 
BRANCH  23  24
ATOM     24  C   UNL     1       9.293  -0.192   0.000  0.00  0.00    +0.000 C 
ATOM     25  C   UNL     1      10.008  -0.605   0.000  0.00  0.00    +0.000 C 
ATOM     26  C   UNL     1      10.722  -0.192   0.000  0.00  0.00    +0.000 C 
ATOM     27  C   UNL     1      10.008  -1.429   0.000  0.00  0.00    +0.000 C 
ENDBRANCH  23  24
ENDBRANCH   5  23
TORSDOF 5
