REMARK  Name = 632135
REMARK  6 active torsions:
REMARK  status: ('A' for Active; 'I' for Inactive)
REMARK    1  A    between atoms: O_2  and  C_11
REMARK    2  A    between atoms: O_3  and  C_12
REMARK    3  A    between atoms: O_4  and  C_16
REMARK    4  A    between atoms: O_6  and  C_20
REMARK    5  A    between atoms: O_7  and  C_21
REMARK    6  A    between atoms: C_10  and  C_14
REMARK                            x       y       z     vdW  Elec       q    Type
REMARK                         _______ _______ _______ _____ _____    ______ ____
ROOT
ATOM      1  O   UNL     1       5.245  -0.222   0.000  0.00  0.00    +0.000 OA
ATOM      2  O   UNL     1       5.236   2.310   0.000  0.00  0.00    +0.000 OA
ATOM      3  C   UNL     1       4.508   1.044   0.000  0.00  0.00    +0.000 A 
ATOM      4  C   UNL     1       4.508   0.219   0.000  0.00  0.00    +0.000 A 
ATOM      5  C   UNL     1       5.993   0.202   0.000  0.00  0.00    +0.000 A 
ATOM      6  C   UNL     1       3.793  -0.194   0.000  0.00  0.00    +0.000 A 
ATOM      7  C   UNL     1       3.793   1.456   0.000  0.00  0.00    +0.000 A 
ATOM      8  C   UNL     1       5.245   1.485   0.000  0.00  0.00    +0.000 A 
ATOM      9  C   UNL     1       5.993   1.061   0.000  0.00  0.00    +0.000 A 
ATOM     10  C   UNL     1       3.079   0.219   0.000  0.00  0.00    +0.000 A 
ATOM     11  C   UNL     1       3.079   1.044   0.000  0.00  0.00    +0.000 A 
ENDROOT
BRANCH   5  12
ATOM     12  C   UNL     1       6.706  -0.213   0.000  0.00  0.00    +0.000 A 
ATOM     13  C   UNL     1       6.703  -1.038   0.000  0.00  0.00    +0.000 A 
ATOM     14  C   UNL     1       7.422   0.196   0.000  0.00  0.00    +0.000 A 
ATOM     15  C   UNL     1       7.415  -1.454   0.000  0.00  0.00    +0.000 A 
ATOM     16  C   UNL     1       8.132  -1.044   0.000  0.00  0.00    +0.000 A 
ATOM     17  C   UNL     1       8.135  -0.219   0.000  0.00  0.00    +0.000 A 
BRANCH  15  18
ATOM     18  O   UNL     1       7.412  -2.279   0.000  0.00  0.00    +0.000 OA
ATOM     19  C   UNL     1       8.125  -2.694   0.000  0.00  0.00    +0.000 C 
ENDBRANCH  15  18
BRANCH  16  20
ATOM     20  O   UNL     1       8.844  -1.459   0.000  0.00  0.00    +0.000 OA
ATOM     21  C   UNL     1       9.560  -1.050   0.000  0.00  0.00    +0.000 C 
ENDBRANCH  16  20
ENDBRANCH   5  12
BRANCH   6  22
ATOM     22  O   UNL     1       3.793  -1.018   0.000  0.00  0.00    +0.000 OA
ATOM     23  C   UNL     1       3.079  -1.431   0.000  0.00  0.00    +0.000 C 
ENDBRANCH   6  22
BRANCH   7  24
ATOM     24  O   UNL     1       3.793   2.281   0.000  0.00  0.00    +0.000 OA
ATOM     25  C   UNL     1       3.079   2.694   0.000  0.00  0.00    +0.000 C 
ENDBRANCH   7  24
BRANCH  10  26
ATOM     26  O   UNL     1       2.364  -0.194   0.000  0.00  0.00    +0.000 OA
ATOM     27  C   UNL     1       1.650   0.219   0.000  0.00  0.00    +0.000 C 
ENDBRANCH  10  26
TORSDOF 6
