REMARK  Name = 10643
REMARK  6 active torsions:
REMARK  status: ('A' for Active; 'I' for Inactive)
REMARK    1  A    between atoms: O_2  and  C_11
REMARK    2  A    between atoms: O_3  and  C_13
REMARK    3  A    between atoms: O_4  and  C_15
REMARK    4  A    between atoms: O_5  and  C_16
REMARK    5  A    between atoms: O_7  and  C_22
REMARK    6  A    between atoms: C_10  and  C_17
REMARK                            x       y       z     vdW  Elec       q    Type
REMARK                         _______ _______ _______ _____ _____    ______ ____
ROOT
ATOM      1  O   UNL     1       5.278  -0.216   0.000  0.00  0.00    +0.000 OA
ATOM      2  O   UNL     1       5.278   2.259   0.000  0.00  0.00    +0.000 OA
ATOM      3  C   UNL     1       4.564   1.021   0.000  0.00  0.00    +0.000 A 
ATOM      4  C   UNL     1       4.564   0.196   0.000  0.00  0.00    +0.000 A 
ATOM      5  C   UNL     1       5.993   0.196   0.000  0.00  0.00    +0.000 A 
ATOM      6  C   UNL     1       3.826  -0.245   0.000  0.00  0.00    +0.000 A 
ATOM      7  C   UNL     1       5.278   1.434   0.000  0.00  0.00    +0.000 A 
ATOM      8  C   UNL     1       5.993   1.021   0.000  0.00  0.00    +0.000 A 
ATOM      9  C   UNL     1       3.826   1.462   0.000  0.00  0.00    +0.000 A 
ATOM     10  C   UNL     1       3.079   0.179   0.000  0.00  0.00    +0.000 A 
ATOM     11  C   UNL     1       3.079   1.038   0.000  0.00  0.00    +0.000 A 
ENDROOT
BRANCH   5  12
ATOM     12  C   UNL     1       6.707  -0.216   0.000  0.00  0.00    +0.000 A 
ATOM     13  C   UNL     1       7.422   0.196   0.000  0.00  0.00    +0.000 A 
ATOM     14  C   UNL     1       6.707  -1.041   0.000  0.00  0.00    +0.000 A 
ATOM     15  C   UNL     1       8.136  -0.216   0.000  0.00  0.00    +0.000 A 
ATOM     16  C   UNL     1       7.422  -1.454   0.000  0.00  0.00    +0.000 A 
ATOM     17  C   UNL     1       8.136  -1.041   0.000  0.00  0.00    +0.000 A 
BRANCH  17  18
ATOM     18  O   UNL     1       8.851  -1.454   0.000  0.00  0.00    +0.000 OA
ATOM     19  C   UNL     1       8.851  -2.279   0.000  0.00  0.00    +0.000 C 
ENDBRANCH  17  18
ENDBRANCH   5  12
BRANCH   6  20
ATOM     20  O   UNL     1       3.836  -1.070   0.000  0.00  0.00    +0.000 OA
ATOM     21  C   UNL     1       3.126  -1.490   0.000  0.00  0.00    +0.000 C 
ENDBRANCH   6  20
BRANCH   8  22
ATOM     22  O   UNL     1       6.707   1.434   0.000  0.00  0.00    +0.000 OA
ATOM     23  C   UNL     1       6.707   2.259   0.000  0.00  0.00    +0.000 C 
ENDBRANCH   8  22
BRANCH  10  24
ATOM     24  O   UNL     1       2.366  -0.236   0.000  0.00  0.00    +0.000 OA
ATOM     25  C   UNL     1       1.650   0.174   0.000  0.00  0.00    +0.000 C 
ENDBRANCH  10  24
BRANCH  11  26
ATOM     26  O   UNL     1       2.366   1.454   0.000  0.00  0.00    +0.000 OA
ATOM     27  C   UNL     1       2.369   2.279   0.000  0.00  0.00    +0.000 C 
ENDBRANCH  11  26
TORSDOF 6
