REMARK  Name = 75072280
REMARK  6 active torsions:
REMARK  status: ('A' for Active; 'I' for Inactive)
REMARK    1  A    between atoms: O_2  and  C_14
REMARK    2  A    between atoms: O_4  and  C_18
REMARK    3  A    between atoms: O_5  and  C_20
REMARK    4  A    between atoms: O_6  and  C_21
REMARK    5  A    between atoms: O_7  and  C_22
REMARK    6  A    between atoms: C_8  and  C_12
REMARK                            x       y       z     vdW  Elec       q    Type
REMARK                         _______ _______ _______ _____ _____    ______ ____
ROOT
ATOM      1  O   UNL     1       5.278   0.398   0.000  0.00  0.00    +0.000 OA
ATOM      2  C   UNL     1       5.993   0.811   0.000  0.00  0.00    +0.000 C 
ATOM      3  C   UNL     1       5.993   1.636   0.000  0.00  0.00    +0.000 C 
ATOM      4  C   UNL     1       5.278   2.048   0.000  0.00  0.00    +0.000 C 
ATOM      5  C   UNL     1       4.564   1.636   0.000  0.00  0.00    +0.000 A 
ATOM      6  C   UNL     1       4.564   0.811   0.000  0.00  0.00    +0.000 A 
ATOM      7  C   UNL     1       3.826   0.370   0.000  0.00  0.00    +0.000 A 
ATOM      8  C   UNL     1       3.826   2.077   0.000  0.00  0.00    +0.000 A 
ATOM      9  C   UNL     1       3.079   0.794   0.000  0.00  0.00    +0.000 A 
ATOM     10  C   UNL     1       3.079   1.653   0.000  0.00  0.00    +0.000 A 
ENDROOT
BRANCH   2  12
ATOM     11  O   UNL     1       5.993  -0.839   0.000  0.00  0.00    +0.000 OA
ATOM     12  C   UNL     1       6.707   0.398   0.000  0.00  0.00    +0.000 A 
ATOM     13  C   UNL     1       6.707  -0.427   0.000  0.00  0.00    +0.000 A 
ATOM     14  C   UNL     1       7.422   0.811   0.000  0.00  0.00    +0.000 A 
ATOM     15  C   UNL     1       7.422  -0.839   0.000  0.00  0.00    +0.000 A 
ATOM     16  C   UNL     1       8.136   0.398   0.000  0.00  0.00    +0.000 A 
ATOM     17  C   UNL     1       8.136  -0.427   0.000  0.00  0.00    +0.000 A 
BRANCH  15  18
ATOM     18  O   UNL     1       7.422  -1.664   0.000  0.00  0.00    +0.000 OA
ATOM     19  C   UNL     1       8.136  -2.077   0.000  0.00  0.00    +0.000 C 
ENDBRANCH  15  18
BRANCH  16  20
ATOM     20  O   UNL     1       8.851   0.811   0.000  0.00  0.00    +0.000 OA
ATOM     21  C   UNL     1       8.851   1.636   0.000  0.00  0.00    +0.000 C 
ENDBRANCH  16  20
BRANCH  17  22
ATOM     22  O   UNL     1       8.851  -0.839   0.000  0.00  0.00    +0.000 OA
ATOM     23  C   UNL     1       9.565  -0.427   0.000  0.00  0.00    +0.000 C 
ENDBRANCH  17  22
ENDBRANCH   2  12
BRANCH   7  24
ATOM     24  O   UNL     1       3.836  -0.455   0.000  0.00  0.00    +0.000 OA
ATOM     25  C   UNL     1       3.126  -0.876   0.000  0.00  0.00    +0.000 C 
ENDBRANCH   7  24
BRANCH   9  26
ATOM     26  O   UNL     1       2.366   0.378   0.000  0.00  0.00    +0.000 OA
ATOM     27  C   UNL     1       1.650   0.788   0.000  0.00  0.00    +0.000 C 
ENDBRANCH   9  26
TORSDOF 6
