REMARK  Name = 171488
REMARK  5 active torsions:
REMARK  status: ('A' for Active; 'I' for Inactive)
REMARK    1  A    between atoms: O_2  and  C_12
REMARK    2  A    between atoms: O_3  and  C_17
REMARK    3  A    between atoms: O_7  and  C_21
REMARK    4  A    between atoms: O_8  and  C_22
REMARK    5  A    between atoms: C_11  and  C_14
REMARK                            x       y       z     vdW  Elec       q    Type
REMARK                         _______ _______ _______ _____ _____    ______ ____
ROOT
ATOM      1  O   UNL     1       5.245  -0.144   0.000  0.00  0.00    +0.000 OA
ATOM      2  O   UNL     1       3.793   2.360   0.000  0.00  0.00    +0.000 OA
ATOM      3  O   UNL     1       2.364  -0.115   0.000  0.00  0.00    +0.000 OA
ATOM      4  O   UNL     1       5.236   2.388   0.000  0.00  0.00    +0.000 OA
ATOM      5  C   UNL     1       4.508   1.122   0.000  0.00  0.00    +0.000 A 
ATOM      6  C   UNL     1       4.508   0.297   0.000  0.00  0.00    +0.000 A 
ATOM      7  C   UNL     1       5.993   0.280   0.000  0.00  0.00    +0.000 A 
ATOM      8  C   UNL     1       3.793  -0.115   0.000  0.00  0.00    +0.000 A 
ATOM      9  C   UNL     1       3.793   1.535   0.000  0.00  0.00    +0.000 A 
ATOM     10  C   UNL     1       5.245   1.563   0.000  0.00  0.00    +0.000 A 
ATOM     11  C   UNL     1       5.993   1.139   0.000  0.00  0.00    +0.000 A 
ATOM     12  C   UNL     1       3.079   1.122   0.000  0.00  0.00    +0.000 A 
ATOM     13  C   UNL     1       3.079   0.297   0.000  0.00  0.00    +0.000 A 
ENDROOT
BRANCH   7  14
ATOM     14  C   UNL     1       6.706  -0.135   0.000  0.00  0.00    +0.000 A 
ATOM     15  C   UNL     1       6.703  -0.960   0.000  0.00  0.00    +0.000 A 
ATOM     16  C   UNL     1       7.422   0.275   0.000  0.00  0.00    +0.000 A 
ATOM     17  C   UNL     1       7.415  -1.375   0.000  0.00  0.00    +0.000 A 
ATOM     18  C   UNL     1       8.132  -0.966   0.000  0.00  0.00    +0.000 A 
ATOM     19  C   UNL     1       8.135  -0.141   0.000  0.00  0.00    +0.000 A 
BRANCH  17  20
ATOM     20  O   UNL     1       7.412  -2.200   0.000  0.00  0.00    +0.000 OA
ATOM     21  C   UNL     1       8.125  -2.616   0.000  0.00  0.00    +0.000 C 
ENDBRANCH  17  20
BRANCH  18  22
ATOM     22  O   UNL     1       8.844  -1.381   0.000  0.00  0.00    +0.000 OA
ATOM     23  C   UNL     1       9.560  -0.971   0.000  0.00  0.00    +0.000 C 
ENDBRANCH  18  22
ENDBRANCH   7  14
BRANCH   8  24
ATOM     24  O   UNL     1       3.793  -0.940   0.000  0.00  0.00    +0.000 OA
ATOM     25  C   UNL     1       3.079  -1.353   0.000  0.00  0.00    +0.000 C 
ENDBRANCH   8  24
BRANCH  12  26
ATOM     26  O   UNL     1       2.364   1.535   0.000  0.00  0.00    +0.000 OA
ATOM     27  C   UNL     1       1.650   1.122   0.000  0.00  0.00    +0.000 C 
ENDBRANCH  12  26
TORSDOF 5
