REMARK  Name = 131752616
REMARK  6 active torsions:
REMARK  status: ('A' for Active; 'I' for Inactive)
REMARK    1  A    between atoms: O_2  and  C_17
REMARK    2  A    between atoms: O_2  and  C_19
REMARK    3  A    between atoms: O_8  and  C_24
REMARK    4  A    between atoms: O_12  and  C_33
REMARK    5  A    between atoms: C_16  and  C_18
REMARK    6  A    between atoms: C_20  and  C_28
REMARK                            x       y       z     vdW  Elec       q    Type
REMARK                         _______ _______ _______ _____ _____    ______ ____
ROOT
ATOM      1  O   UNL     1       7.114   0.984   0.000  0.00  0.00    +0.000 OA
ATOM      2  O   UNL     1       6.407   3.049   0.000  0.00  0.00    +0.000 OA
ATOM      3  O   UNL     1       4.225   0.998   0.000  0.00  0.00    +0.000 OA
ATOM      4  O   UNL     1       4.975   2.230   0.000  0.00  0.00    +0.000 OA
ATOM      5  C   UNL     1       5.665  -0.717   0.000  0.00  0.00    +0.000 A 
ATOM      6  C   UNL     1       7.117   1.809   0.000  0.00  0.00    +0.000 C 
ATOM      7  C   UNL     1       6.404   2.224   0.000  0.00  0.00    +0.000 C 
ATOM      8  C   UNL     1       6.398   0.574   0.000  0.00  0.00    +0.000 A 
ATOM      9  C   UNL     1       5.685   0.990   0.000  0.00  0.00    +0.000 A 
ATOM     10  C   UNL     1       6.408  -0.285   0.000  0.00  0.00    +0.000 A 
ATOM     11  C   UNL     1       5.688   1.815   0.000  0.00  0.00    +0.000 C 
ATOM     12  C   UNL     1       4.923  -0.285   0.000  0.00  0.00    +0.000 A 
ATOM     13  C   UNL     1       4.933   0.574   0.000  0.00  0.00    +0.000 A 
ENDROOT
BRANCH   6  14
ATOM     14  C   UNL     1       7.833   2.219   0.000  0.00  0.00    +0.000 A 
ATOM     15  C   UNL     1       7.836   3.044   0.000  0.00  0.00    +0.000 A 
ATOM     16  C   UNL     1       8.546   1.804   0.000  0.00  0.00    +0.000 A 
ATOM     17  C   UNL     1       8.552   3.454   0.000  0.00  0.00    +0.000 A 
ATOM     18  C   UNL     1       9.262   2.213   0.000  0.00  0.00    +0.000 A 
ATOM     19  C   UNL     1       9.265   3.038   0.000  0.00  0.00    +0.000 A 
BRANCH  19  20
ATOM     20  O   UNL     1       9.981   3.448   0.000  0.00  0.00    +0.000 OA
ATOM     21  C   UNL     1       9.985   4.273   0.000  0.00  0.00    +0.000 C 
ENDBRANCH  19  20
ENDBRANCH   6  14
BRANCH  10  22
ATOM     22  O   UNL     1       7.125  -0.692   0.000  0.00  0.00    +0.000 OA
ATOM     23  C   UNL     1       7.132  -1.517   0.000  0.00  0.00    +0.000 C 
ENDBRANCH  10  22
BRANCH   5  24
ATOM     24  O   UNL     1       5.665  -1.542   0.000  0.00  0.00    +0.000 OA
BRANCH  24  33
ATOM     25  O   UNL     1       4.236  -1.542   0.000  0.00  0.00    +0.000 OA
ATOM     26  O   UNL     1       4.236  -4.017   0.000  0.00  0.00    +0.000 OA
ATOM     27  O   UNL     1       2.808  -3.192   0.000  0.00  0.00    +0.000 OA
ATOM     28  O   UNL     1       5.665  -3.192   0.000  0.00  0.00    +0.000 OA
ATOM     29  C   UNL     1       4.236  -3.192   0.000  0.00  0.00    +0.000 C 
ATOM     30  C   UNL     1       3.522  -2.780   0.000  0.00  0.00    +0.000 C 
ATOM     31  C   UNL     1       4.951  -2.780   0.000  0.00  0.00    +0.000 C 
ATOM     32  C   UNL     1       3.522  -1.955   0.000  0.00  0.00    +0.000 C 
ATOM     33  C   UNL     1       4.951  -1.955   0.000  0.00  0.00    +0.000 C 
BRANCH  32  35
ATOM     34  O   UNL     1       2.093  -1.955   0.000  0.00  0.00    +0.000 OA
ATOM     35  C   UNL     1       2.808  -1.542   0.000  0.00  0.00    +0.000 C 
ENDBRANCH  32  35
ENDBRANCH  24  33
ENDBRANCH   5  24
TORSDOF 6
