REMARK  Name = 11079623
REMARK  6 active torsions:
REMARK  status: ('A' for Active; 'I' for Inactive)
REMARK    1  A    between atoms: O_2  and  C_12
REMARK    2  A    between atoms: O_3  and  C_15
REMARK    3  A    between atoms: O_4  and  C_16
REMARK    4  A    between atoms: O_5  and  C_17
REMARK    5  A    between atoms: O_8  and  C_23
REMARK    6  A    between atoms: C_11  and  C_18
REMARK                            x       y       z     vdW  Elec       q    Type
REMARK                         _______ _______ _______ _____ _____    ______ ____
ROOT
ATOM      1  O   UNL     1       5.245  -0.349   0.000  0.00  0.00    +0.000 OA
ATOM      2  O   UNL     1       3.793   2.155   0.000  0.00  0.00    +0.000 OA
ATOM      3  O   UNL     1       5.236   2.183   0.000  0.00  0.00    +0.000 OA
ATOM      4  C   UNL     1       4.508   0.917   0.000  0.00  0.00    +0.000 A 
ATOM      5  C   UNL     1       4.508   0.092   0.000  0.00  0.00    +0.000 A 
ATOM      6  C   UNL     1       5.993   0.075   0.000  0.00  0.00    +0.000 A 
ATOM      7  C   UNL     1       3.793  -0.320   0.000  0.00  0.00    +0.000 A 
ATOM      8  C   UNL     1       3.793   1.330   0.000  0.00  0.00    +0.000 A 
ATOM      9  C   UNL     1       5.245   1.359   0.000  0.00  0.00    +0.000 A 
ATOM     10  C   UNL     1       5.993   0.935   0.000  0.00  0.00    +0.000 A 
ATOM     11  C   UNL     1       3.079   0.092   0.000  0.00  0.00    +0.000 A 
ATOM     12  C   UNL     1       3.079   0.917   0.000  0.00  0.00    +0.000 A 
ENDROOT
BRANCH   6  13
ATOM     13  C   UNL     1       6.706  -0.340   0.000  0.00  0.00    +0.000 A 
ATOM     14  C   UNL     1       7.422   0.070   0.000  0.00  0.00    +0.000 A 
ATOM     15  C   UNL     1       6.703  -1.165   0.000  0.00  0.00    +0.000 A 
ATOM     16  C   UNL     1       8.135  -0.345   0.000  0.00  0.00    +0.000 A 
ATOM     17  C   UNL     1       7.415  -1.580   0.000  0.00  0.00    +0.000 A 
ATOM     18  C   UNL     1       8.132  -1.171   0.000  0.00  0.00    +0.000 A 
BRANCH  18  19
ATOM     19  O   UNL     1       8.844  -1.586   0.000  0.00  0.00    +0.000 OA
ATOM     20  C   UNL     1       8.841  -2.411   0.000  0.00  0.00    +0.000 C 
ENDBRANCH  18  19
ENDBRANCH   6  13
BRANCH   7  21
ATOM     21  O   UNL     1       3.793  -1.145   0.000  0.00  0.00    +0.000 OA
ATOM     22  C   UNL     1       3.079  -1.558   0.000  0.00  0.00    +0.000 C 
ENDBRANCH   7  21
BRANCH  10  23
ATOM     23  O   UNL     1       6.706   1.350   0.000  0.00  0.00    +0.000 OA
ATOM     24  C   UNL     1       6.703   2.175   0.000  0.00  0.00    +0.000 C 
ENDBRANCH  10  23
BRANCH  11  25
ATOM     25  O   UNL     1       2.364  -0.320   0.000  0.00  0.00    +0.000 OA
ATOM     26  C   UNL     1       1.650   0.092   0.000  0.00  0.00    +0.000 C 
ENDBRANCH  11  25
BRANCH  12  27
ATOM     27  O   UNL     1       2.364   1.330   0.000  0.00  0.00    +0.000 OA
ATOM     28  C   UNL     1       1.650   0.917   0.000  0.00  0.00    +0.000 C 
ENDBRANCH  12  27
TORSDOF 6
