REMARK  Name = 10200272
REMARK  6 active torsions:
REMARK  status: ('A' for Active; 'I' for Inactive)
REMARK    1  A    between atoms: O_2  and  C_12
REMARK    2  A    between atoms: O_3  and  C_15
REMARK    3  A    between atoms: O_4  and  C_17
REMARK    4  A    between atoms: O_7  and  C_21
REMARK    5  A    between atoms: O_8  and  C_22
REMARK    6  A    between atoms: C_11  and  C_14
REMARK                            x       y       z     vdW  Elec       q    Type
REMARK                         _______ _______ _______ _____ _____    ______ ____
ROOT
ATOM      1  O   UNL     1       5.278  -0.145   0.000  0.00  0.00    +0.000 OA
ATOM      2  O   UNL     1       3.836   2.359   0.000  0.00  0.00    +0.000 OA
ATOM      3  O   UNL     1       5.278   2.330   0.000  0.00  0.00    +0.000 OA
ATOM      4  C   UNL     1       4.564   1.093   0.000  0.00  0.00    +0.000 A 
ATOM      5  C   UNL     1       4.564   0.268   0.000  0.00  0.00    +0.000 A 
ATOM      6  C   UNL     1       5.993   0.268   0.000  0.00  0.00    +0.000 A 
ATOM      7  C   UNL     1       5.993   1.093   0.000  0.00  0.00    +0.000 A 
ATOM      8  C   UNL     1       5.278   1.505   0.000  0.00  0.00    +0.000 A 
ATOM      9  C   UNL     1       3.826  -0.173   0.000  0.00  0.00    +0.000 A 
ATOM     10  C   UNL     1       3.826   1.534   0.000  0.00  0.00    +0.000 A 
ATOM     11  C   UNL     1       3.079   0.251   0.000  0.00  0.00    +0.000 A 
ATOM     12  C   UNL     1       3.079   1.110   0.000  0.00  0.00    +0.000 A 
ENDROOT
BRANCH   6  13
ATOM     13  C   UNL     1       6.707  -0.145   0.000  0.00  0.00    +0.000 A 
ATOM     14  C   UNL     1       6.707  -0.970   0.000  0.00  0.00    +0.000 A 
ATOM     15  C   UNL     1       7.422   0.268   0.000  0.00  0.00    +0.000 A 
ATOM     16  C   UNL     1       7.422  -1.382   0.000  0.00  0.00    +0.000 A 
ATOM     17  C   UNL     1       8.136  -0.970   0.000  0.00  0.00    +0.000 A 
ATOM     18  C   UNL     1       8.136  -0.145   0.000  0.00  0.00    +0.000 A 
BRANCH  16  19
ATOM     19  O   UNL     1       7.422  -2.207   0.000  0.00  0.00    +0.000 OA
ATOM     20  C   UNL     1       8.136  -2.620   0.000  0.00  0.00    +0.000 C 
ENDBRANCH  16  19
BRANCH  17  21
ATOM     21  O   UNL     1       8.851  -1.382   0.000  0.00  0.00    +0.000 OA
ATOM     22  C   UNL     1       9.565  -0.970   0.000  0.00  0.00    +0.000 C 
ENDBRANCH  17  21
ENDBRANCH   6  13
BRANCH   7  23
ATOM     23  O   UNL     1       6.707   1.505   0.000  0.00  0.00    +0.000 OA
ATOM     24  C   UNL     1       6.707   2.330   0.000  0.00  0.00    +0.000 C 
ENDBRANCH   7  23
BRANCH   9  25
ATOM     25  O   UNL     1       3.836  -0.998   0.000  0.00  0.00    +0.000 OA
ATOM     26  C   UNL     1       3.126  -1.419   0.000  0.00  0.00    +0.000 C 
ENDBRANCH   9  25
BRANCH  11  27
ATOM     27  O   UNL     1       2.366  -0.165   0.000  0.00  0.00    +0.000 OA
ATOM     28  C   UNL     1       1.650   0.245   0.000  0.00  0.00    +0.000 C 
ENDBRANCH  11  27
TORSDOF 6
