REMARK  Name = 131753028
REMARK  5 active torsions:
REMARK  status: ('A' for Active; 'I' for Inactive)
REMARK    1  A    between atoms: O_2  and  C_14
REMARK    2  A    between atoms: C_7  and  C_11
REMARK    3  A    between atoms: C_16  and  C_23
REMARK    4  A    between atoms: C_17  and  C_22
REMARK    5  A    between atoms: C_22  and  C_24
REMARK                            x       y       z     vdW  Elec       q    Type
REMARK                         _______ _______ _______ _____ _____    ______ ____
ROOT
ATOM      1  O   UNL     1       4.974  -1.123   0.000  0.00  0.00    +0.000 OA
ATOM      2  O   UNL     1       2.093  -1.095   0.000  0.00  0.00    +0.000 OA
ATOM      3  C   UNL     1       5.721   0.160   0.000  0.00  0.00    +0.000 C 
ATOM      4  C   UNL     1       4.974   0.584   0.000  0.00  0.00    +0.000 C 
ATOM      5  C   UNL     1       5.721  -0.700   0.000  0.00  0.00    +0.000 C 
ATOM      6  C   UNL     1       4.236   0.143   0.000  0.00  0.00    +0.000 A 
ATOM      7  C   UNL     1       4.236  -0.682   0.000  0.00  0.00    +0.000 A 
ATOM      8  C   UNL     1       3.522   0.555   0.000  0.00  0.00    +0.000 A 
ATOM      9  C   UNL     1       3.522  -1.095   0.000  0.00  0.00    +0.000 A 
ATOM     10  C   UNL     1       2.808   0.143   0.000  0.00  0.00    +0.000 A 
ATOM     11  C   UNL     1       2.808  -0.682   0.000  0.00  0.00    +0.000 A 
ENDROOT
BRANCH   3  14
ATOM     12  O   UNL     1       7.154  -0.660   0.000  0.00  0.00    +0.000 OA
ATOM     13  O   UNL     1       8.573   1.821   0.000  0.00  0.00    +0.000 OA
ATOM     14  C   UNL     1       6.434   0.575   0.000  0.00  0.00    +0.000 A 
ATOM     15  C   UNL     1       7.150   0.165   0.000  0.00  0.00    +0.000 A 
ATOM     16  C   UNL     1       6.431   1.400   0.000  0.00  0.00    +0.000 A 
ATOM     17  C   UNL     1       7.863   0.581   0.000  0.00  0.00    +0.000 A 
ATOM     18  C   UNL     1       7.144   1.815   0.000  0.00  0.00    +0.000 A 
ATOM     19  C   UNL     1       7.860   1.406   0.000  0.00  0.00    +0.000 A 
BRANCH  17  20
ATOM     20  C   UNL     1       8.579   0.171   0.000  0.00  0.00    +0.000 C 
BRANCH  20  21
ATOM     21  C   UNL     1       9.292   0.586   0.000  0.00  0.00    +0.000 C 
ATOM     22  C   UNL     1      10.008   0.176   0.000  0.00  0.00    +0.000 C 
ATOM     23  C   UNL     1      10.721   0.592   0.000  0.00  0.00    +0.000 C 
ATOM     24  C   UNL     1      10.011  -0.649   0.000  0.00  0.00    +0.000 C 
ENDBRANCH  20  21
ENDBRANCH  17  20
ENDBRANCH   3  14
BRANCH   8  25
ATOM     25  O   UNL     1       3.522   1.380   0.000  0.00  0.00    +0.000 OA
ATOM     26  C   UNL     1       2.808   1.793   0.000  0.00  0.00    +0.000 C 
ENDBRANCH   8  25
BRANCH   9  28
ATOM     27  O   UNL     1       2.808  -2.332   0.000  0.00  0.00    +0.000 OA
ATOM     28  C   UNL     1       3.522  -1.920   0.000  0.00  0.00    +0.000 C 
ENDBRANCH   9  28
TORSDOF 5
