REMARK  Name = 74977561
REMARK  2 active torsions:
REMARK  status: ('A' for Active; 'I' for Inactive)
REMARK    1  A    between atoms: C_13  and  C_16
REMARK    2  A    between atoms: C_24  and  C_26
REMARK                            x       y       z     vdW  Elec       q    Type
REMARK                         _______ _______ _______ _____ _____    ______ ____
ROOT
ATOM      1  O   UNL     1       5.665   1.662   0.000  0.00  0.00    +0.000 OA
ATOM      2  O   UNL     1       4.236  -0.813   0.000  0.00  0.00    +0.000 OA
ATOM      3  O   UNL     1       7.117  -0.841   0.000  0.00  0.00    +0.000 OA
ATOM      4  O   UNL     1       7.108   1.691   0.000  0.00  0.00    +0.000 OA
ATOM      5  C   UNL     1       4.951   0.425   0.000  0.00  0.00    +0.000 A 
ATOM      6  C   UNL     1       5.665   0.837   0.000  0.00  0.00    +0.000 A 
ATOM      7  C   UNL     1       4.951  -0.400   0.000  0.00  0.00    +0.000 A 
ATOM      8  C   UNL     1       6.380   0.425   0.000  0.00  0.00    +0.000 A 
ATOM      9  C   UNL     1       5.665  -0.813   0.000  0.00  0.00    +0.000 A 
ATOM     10  C   UNL     1       6.380  -0.400   0.000  0.00  0.00    +0.000 A 
ATOM     11  C   UNL     1       7.117   0.866   0.000  0.00  0.00    +0.000 A 
ATOM     12  C   UNL     1       7.865  -0.417   0.000  0.00  0.00    +0.000 A 
ATOM     13  C   UNL     1       7.865   0.442   0.000  0.00  0.00    +0.000 A 
ENDROOT
BRANCH   5  20
ATOM     14  O   UNL     1       3.522   0.425   0.000  0.00  0.00    +0.000 OA
ATOM     15  O   UNL     1       4.951   2.075   0.000  0.00  0.00    +0.000 OA
ATOM     16  O   UNL     1       3.522   2.900   0.000  0.00  0.00    +0.000 OA
ATOM     17  O   UNL     1       2.093   2.075   0.000  0.00  0.00    +0.000 OA
ATOM     18  C   UNL     1       4.236   1.662   0.000  0.00  0.00    +0.000 C 
ATOM     19  C   UNL     1       3.522   2.075   0.000  0.00  0.00    +0.000 C 
ATOM     20  C   UNL     1       4.236   0.837   0.000  0.00  0.00    +0.000 C 
ATOM     21  C   UNL     1       2.808   1.662   0.000  0.00  0.00    +0.000 C 
ATOM     22  C   UNL     1       2.808   0.837   0.000  0.00  0.00    +0.000 C 
ATOM     23  C   UNL     1       2.093   0.425   0.000  0.00  0.00    +0.000 C 
ENDBRANCH   5  20
BRANCH  12  26
ATOM     24  O   UNL     1       9.284  -2.898   0.000  0.00  0.00    +0.000 OA
ATOM     25  O   UNL     1      10.716  -2.079   0.000  0.00  0.00    +0.000 OA
ATOM     26  C   UNL     1       8.578  -0.833   0.000  0.00  0.00    +0.000 A 
ATOM     27  C   UNL     1       8.575  -1.658   0.000  0.00  0.00    +0.000 A 
ATOM     28  C   UNL     1       9.294  -0.423   0.000  0.00  0.00    +0.000 A 
ATOM     29  C   UNL     1       9.287  -2.073   0.000  0.00  0.00    +0.000 A 
ATOM     30  C   UNL     1      10.007  -0.838   0.000  0.00  0.00    +0.000 A 
ATOM     31  C   UNL     1      10.004  -1.663   0.000  0.00  0.00    +0.000 A 
ENDBRANCH  12  26
TORSDOF 2
