REMARK  Name = 480863
REMARK  4 active torsions:
REMARK  status: ('A' for Active; 'I' for Inactive)
REMARK    1  A    between atoms: O_3  and  C_14
REMARK    2  A    between atoms: C_8  and  C_18
REMARK    3  A    between atoms: C_23  and  C_26
REMARK    4  A    between atoms: C_26  and  C_28
REMARK                            x       y       z     vdW  Elec       q    Type
REMARK                         _______ _______ _______ _____ _____    ______ ____
ROOT
ATOM      1  O   UNL     1       3.223  -1.582   0.000  0.00  0.00    +0.000 OA
ATOM      2  O   UNL     1       6.126  -1.582   0.000  0.00  0.00    +0.000 OA
ATOM      3  C   UNL     1       2.475  -1.158   0.000  0.00  0.00    +0.000 C 
ATOM      4  C   UNL     1       2.475  -0.299   0.000  0.00  0.00    +0.000 C 
ATOM      5  C   UNL     1       6.874  -0.299   0.000  0.00  0.00    +0.000 C 
ATOM      6  C   UNL     1       3.223   0.125   0.000  0.00  0.00    +0.000 C 
ATOM      7  C   UNL     1       3.960  -0.316   0.000  0.00  0.00    +0.000 A 
ATOM      8  C   UNL     1       6.126   0.125   0.000  0.00  0.00    +0.000 C 
ATOM      9  C   UNL     1       5.389  -0.316   0.000  0.00  0.00    +0.000 A 
ATOM     10  C   UNL     1       3.960  -1.141   0.000  0.00  0.00    +0.000 A 
ATOM     11  C   UNL     1       4.674   0.097   0.000  0.00  0.00    +0.000 A 
ATOM     12  C   UNL     1       5.389  -1.141   0.000  0.00  0.00    +0.000 A 
ATOM     13  C   UNL     1       6.874  -1.158   0.000  0.00  0.00    +0.000 C 
ATOM     14  C   UNL     1       4.674  -1.553   0.000  0.00  0.00    +0.000 A 
ATOM     15  C   UNL     1       1.650  -1.161   0.000  0.00  0.00    +0.000 C 
ATOM     16  C   UNL     1       2.065  -1.874   0.000  0.00  0.00    +0.000 C 
ENDROOT
BRANCH   5  19
ATOM     17  O   UNL     1       8.306  -1.118   0.000  0.00  0.00    +0.000 OA
ATOM     18  O   UNL     1       9.725   1.363   0.000  0.00  0.00    +0.000 OA
ATOM     19  C   UNL     1       7.587   0.117   0.000  0.00  0.00    +0.000 A 
ATOM     20  C   UNL     1       8.303  -0.293   0.000  0.00  0.00    +0.000 A 
ATOM     21  C   UNL     1       7.584   0.942   0.000  0.00  0.00    +0.000 A 
ATOM     22  C   UNL     1       9.016   0.122   0.000  0.00  0.00    +0.000 A 
ATOM     23  C   UNL     1       8.296   1.357   0.000  0.00  0.00    +0.000 A 
ATOM     24  C   UNL     1       9.012   0.947   0.000  0.00  0.00    +0.000 A 
BRANCH  22  25
ATOM     25  C   UNL     1       9.732  -0.287   0.000  0.00  0.00    +0.000 C 
BRANCH  25  26
ATOM     26  C   UNL     1      10.445   0.128   0.000  0.00  0.00    +0.000 C 
ATOM     27  C   UNL     1      11.161  -0.282   0.000  0.00  0.00    +0.000 C 
ATOM     28  C   UNL     1      11.874   0.133   0.000  0.00  0.00    +0.000 C 
ATOM     29  C   UNL     1      11.164  -1.107   0.000  0.00  0.00    +0.000 C 
ENDBRANCH  25  26
ENDBRANCH  22  25
ENDBRANCH   5  19
BRANCH  11  30
ATOM     30  O   UNL     1       4.674   0.922   0.000  0.00  0.00    +0.000 OA
ATOM     31  C   UNL     1       3.960   1.334   0.000  0.00  0.00    +0.000 C 
ENDBRANCH  11  30
TORSDOF 4
