REMARK  Name = 74977694
REMARK  5 active torsions:
REMARK  status: ('A' for Active; 'I' for Inactive)
REMARK    1  A    between atoms: O_1  and  C_15
REMARK    2  A    between atoms: O_1  and  C_20
REMARK    3  A    between atoms: O_13  and  C_39
REMARK    4  A    between atoms: C_17  and  C_25
REMARK    5  A    between atoms: C_35  and  C_36
REMARK                            x       y       z     vdW  Elec       q    Type
REMARK                         _______ _______ _______ _____ _____    ______ ____
ROOT
ATOM      1  O   UNL     1       7.094   1.778   0.000  0.00  0.00    +0.000 OA
ATOM      2  O   UNL     1       5.665  -0.697   0.000  0.00  0.00    +0.000 OA
ATOM      3  O   UNL     1       8.546  -0.726   0.000  0.00  0.00    +0.000 OA
ATOM      4  O   UNL     1       8.537   1.806   0.000  0.00  0.00    +0.000 OA
ATOM      5  C   UNL     1       6.380   0.540   0.000  0.00  0.00    +0.000 A 
ATOM      6  C   UNL     1       7.094   0.953   0.000  0.00  0.00    +0.000 A 
ATOM      7  C   UNL     1       6.380  -0.285   0.000  0.00  0.00    +0.000 A 
ATOM      8  C   UNL     1       7.809   0.540   0.000  0.00  0.00    +0.000 A 
ATOM      9  C   UNL     1       7.094  -0.697   0.000  0.00  0.00    +0.000 A 
ATOM     10  C   UNL     1       7.809  -0.285   0.000  0.00  0.00    +0.000 A 
ATOM     11  C   UNL     1       8.546   0.982   0.000  0.00  0.00    +0.000 A 
ATOM     12  C   UNL     1       9.294   0.557   0.000  0.00  0.00    +0.000 A 
ATOM     13  C   UNL     1       9.294  -0.302   0.000  0.00  0.00    +0.000 A 
ENDROOT
BRANCH   5  19
ATOM     14  O   UNL     1       5.665   1.778   0.000  0.00  0.00    +0.000 OA
ATOM     15  O   UNL     1       3.522   0.540   0.000  0.00  0.00    +0.000 OA
ATOM     16  O   UNL     1       3.522   2.190   0.000  0.00  0.00    +0.000 OA
ATOM     17  C   UNL     1       4.951   0.540   0.000  0.00  0.00    +0.000 C 
ATOM     18  C   UNL     1       4.236   0.953   0.000  0.00  0.00    +0.000 C 
ATOM     19  C   UNL     1       5.665   0.953   0.000  0.00  0.00    +0.000 C 
ATOM     20  C   UNL     1       4.236   1.778   0.000  0.00  0.00    +0.000 C 
ATOM     21  C   UNL     1       4.951   2.190   0.000  0.00  0.00    +0.000 C 
ATOM     22  C   UNL     1       4.951   3.015   0.000  0.00  0.00    +0.000 C 
BRANCH  17  23
ATOM     23  O   UNL     1       4.951  -0.285   0.000  0.00  0.00    +0.000 OA
BRANCH  23  28
ATOM     24  O   UNL     1       3.522  -0.285   0.000  0.00  0.00    +0.000 OA
ATOM     25  O   UNL     1       4.951  -1.935   0.000  0.00  0.00    +0.000 OA
ATOM     26  O   UNL     1       3.522  -2.760   0.000  0.00  0.00    +0.000 OA
ATOM     27  O   UNL     1       2.093  -1.935   0.000  0.00  0.00    +0.000 OA
ATOM     28  C   UNL     1       4.236  -0.697   0.000  0.00  0.00    +0.000 C 
ATOM     29  C   UNL     1       4.236  -1.522   0.000  0.00  0.00    +0.000 C 
ATOM     30  C   UNL     1       3.522  -1.935   0.000  0.00  0.00    +0.000 C 
ATOM     31  C   UNL     1       2.808  -1.522   0.000  0.00  0.00    +0.000 C 
ATOM     32  C   UNL     1       2.808  -0.697   0.000  0.00  0.00    +0.000 C 
ATOM     33  C   UNL     1       2.093  -0.285   0.000  0.00  0.00    +0.000 C 
ENDBRANCH  23  28
ENDBRANCH  17  23
ENDBRANCH   5  19
BRANCH  13  35
ATOM     34  O   UNL     1      12.145  -1.963   0.000  0.00  0.00    +0.000 OA
ATOM     35  C   UNL     1      10.007  -0.717   0.000  0.00  0.00    +0.000 A 
ATOM     36  C   UNL     1      10.723  -0.307   0.000  0.00  0.00    +0.000 A 
ATOM     37  C   UNL     1      10.004  -1.542   0.000  0.00  0.00    +0.000 A 
ATOM     38  C   UNL     1      11.436  -0.723   0.000  0.00  0.00    +0.000 A 
ATOM     39  C   UNL     1      10.716  -1.957   0.000  0.00  0.00    +0.000 A 
ATOM     40  C   UNL     1      11.432  -1.548   0.000  0.00  0.00    +0.000 A 
BRANCH  38  41
ATOM     41  O   UNL     1      12.152  -0.313   0.000  0.00  0.00    +0.000 OA
ATOM     42  C   UNL     1      12.864  -0.728   0.000  0.00  0.00    +0.000 C 
ENDBRANCH  38  41
ENDBRANCH  13  35
TORSDOF 5
