REMARK  Name = 14427340
REMARK  6 active torsions:
REMARK  status: ('A' for Active; 'I' for Inactive)
REMARK    1  A    between atoms: O_1  and  C_15
REMARK    2  A    between atoms: O_1  and  C_20
REMARK    3  A    between atoms: O_11  and  C_28
REMARK    4  A    between atoms: C_17  and  C_25
REMARK    5  A    between atoms: C_19  and  C_26
REMARK    6  A    between atoms: C_34  and  C_37
REMARK                            x       y       z     vdW  Elec       q    Type
REMARK                         _______ _______ _______ _____ _____    ______ ____
ROOT
ATOM      1  O   UNL     1       5.665   0.383   0.000  0.00  0.00    +0.000 OA
ATOM      2  O   UNL     1       3.522  -0.854   0.000  0.00  0.00    +0.000 OA
ATOM      3  O   UNL     1       3.522   0.796   0.000  0.00  0.00    +0.000 OA
ATOM      4  C   UNL     1       4.951  -0.854   0.000  0.00  0.00    +0.000 C 
ATOM      5  C   UNL     1       4.236  -0.442   0.000  0.00  0.00    +0.000 C 
ATOM      6  C   UNL     1       5.665  -0.442   0.000  0.00  0.00    +0.000 C 
ATOM      7  C   UNL     1       4.236   0.383   0.000  0.00  0.00    +0.000 C 
ATOM      8  C   UNL     1       4.951   0.796   0.000  0.00  0.00    +0.000 C 
ENDROOT
BRANCH   6  12
ATOM      9  O   UNL     1       7.081   0.417   0.000  0.00  0.00    +0.000 OA
ATOM     10  O   UNL     1       8.523  -2.092   0.000  0.00  0.00    +0.000 OA
ATOM     11  O   UNL     1       9.269  -0.857   0.000  0.00  0.00    +0.000 OA
ATOM     12  C   UNL     1       6.380  -0.854   0.000  0.00  0.00    +0.000 A 
ATOM     13  C   UNL     1       7.094  -0.442   0.000  0.00  0.00    +0.000 A 
ATOM     14  C   UNL     1       6.380  -1.679   0.000  0.00  0.00    +0.000 A 
ATOM     15  C   UNL     1       7.809  -0.854   0.000  0.00  0.00    +0.000 A 
ATOM     16  C   UNL     1       7.094  -2.092   0.000  0.00  0.00    +0.000 A 
ATOM     17  C   UNL     1       7.809  -1.679   0.000  0.00  0.00    +0.000 A 
ATOM     18  C   UNL     1       8.559  -0.436   0.000  0.00  0.00    +0.000 A 
ATOM     19  C   UNL     1       7.822   0.853   0.000  0.00  0.00    +0.000 A 
ATOM     20  C   UNL     1       8.566   0.423   0.000  0.00  0.00    +0.000 A 
BRANCH  19  22
ATOM     21  O   UNL     1       7.809   4.153   0.000  0.00  0.00    +0.000 OA
ATOM     22  C   UNL     1       7.819   1.678   0.000  0.00  0.00    +0.000 A 
ATOM     23  C   UNL     1       8.532   2.093   0.000  0.00  0.00    +0.000 A 
ATOM     24  C   UNL     1       7.103   2.087   0.000  0.00  0.00    +0.000 A 
ATOM     25  C   UNL     1       8.528   2.918   0.000  0.00  0.00    +0.000 A 
ATOM     26  C   UNL     1       7.099   2.913   0.000  0.00  0.00    +0.000 A 
ATOM     27  C   UNL     1       7.812   3.328   0.000  0.00  0.00    +0.000 A 
ENDBRANCH  19  22
BRANCH  14  28
ATOM     28  O   UNL     1       5.665  -2.092   0.000  0.00  0.00    +0.000 OA
ATOM     29  C   UNL     1       5.665  -2.917   0.000  0.00  0.00    +0.000 C 
ENDBRANCH  14  28
ENDBRANCH   6  12
BRANCH   8  31
ATOM     30  O   UNL     1       4.236   2.033   0.000  0.00  0.00    +0.000 OA
ATOM     31  C   UNL     1       4.951   1.621   0.000  0.00  0.00    +0.000 C 
ENDBRANCH   8  31
BRANCH   4  32
ATOM     32  O   UNL     1       4.951  -1.679   0.000  0.00  0.00    +0.000 OA
BRANCH  32  37
ATOM     33  O   UNL     1       3.522  -1.679   0.000  0.00  0.00    +0.000 OA
ATOM     34  O   UNL     1       4.951  -3.329   0.000  0.00  0.00    +0.000 OA
ATOM     35  O   UNL     1       3.522  -4.154   0.000  0.00  0.00    +0.000 OA
ATOM     36  O   UNL     1       2.093  -3.329   0.000  0.00  0.00    +0.000 OA
ATOM     37  C   UNL     1       4.236  -2.092   0.000  0.00  0.00    +0.000 C 
ATOM     38  C   UNL     1       4.236  -2.917   0.000  0.00  0.00    +0.000 C 
ATOM     39  C   UNL     1       3.522  -3.329   0.000  0.00  0.00    +0.000 C 
ATOM     40  C   UNL     1       2.808  -2.917   0.000  0.00  0.00    +0.000 C 
ATOM     41  C   UNL     1       2.808  -2.092   0.000  0.00  0.00    +0.000 C 
ATOM     42  C   UNL     1       2.093  -1.679   0.000  0.00  0.00    +0.000 C 
ENDBRANCH  32  37
ENDBRANCH   4  32
TORSDOF 6
