REMARK  Name = 44257874
REMARK  6 active torsions:
REMARK  status: ('A' for Active; 'I' for Inactive)
REMARK    1  A    between atoms: O_1  and  C_15
REMARK    2  A    between atoms: O_1  and  C_20
REMARK    3  A    between atoms: O_14  and  C_41
REMARK    4  A    between atoms: C_17  and  C_25
REMARK    5  A    between atoms: C_19  and  C_26
REMARK    6  A    between atoms: C_35  and  C_36
REMARK                            x       y       z     vdW  Elec       q    Type
REMARK                         _______ _______ _______ _____ _____    ______ ____
ROOT
ATOM      1  O   UNL     1       5.665   1.316   0.000  0.00  0.00    +0.000 OA
ATOM      2  O   UNL     1       3.522   0.078   0.000  0.00  0.00    +0.000 OA
ATOM      3  O   UNL     1       3.522   1.728   0.000  0.00  0.00    +0.000 OA
ATOM      4  C   UNL     1       4.951   0.078   0.000  0.00  0.00    +0.000 C 
ATOM      5  C   UNL     1       4.236   0.491   0.000  0.00  0.00    +0.000 C 
ATOM      6  C   UNL     1       5.665   0.491   0.000  0.00  0.00    +0.000 C 
ATOM      7  C   UNL     1       4.236   1.316   0.000  0.00  0.00    +0.000 C 
ATOM      8  C   UNL     1       4.951   1.728   0.000  0.00  0.00    +0.000 C 
ENDROOT
BRANCH   6  13
ATOM      9  O   UNL     1       7.094   1.316   0.000  0.00  0.00    +0.000 OA
ATOM     10  O   UNL     1       5.665  -1.159   0.000  0.00  0.00    +0.000 OA
ATOM     11  O   UNL     1       8.546  -1.188   0.000  0.00  0.00    +0.000 OA
ATOM     12  O   UNL     1       8.537   1.344   0.000  0.00  0.00    +0.000 OA
ATOM     13  C   UNL     1       6.380   0.078   0.000  0.00  0.00    +0.000 A 
ATOM     14  C   UNL     1       7.094   0.491   0.000  0.00  0.00    +0.000 A 
ATOM     15  C   UNL     1       6.380  -0.747   0.000  0.00  0.00    +0.000 A 
ATOM     16  C   UNL     1       7.809   0.078   0.000  0.00  0.00    +0.000 A 
ATOM     17  C   UNL     1       7.094  -1.159   0.000  0.00  0.00    +0.000 A 
ATOM     18  C   UNL     1       7.809  -0.747   0.000  0.00  0.00    +0.000 A 
ATOM     19  C   UNL     1       8.546   0.519   0.000  0.00  0.00    +0.000 A 
ATOM     20  C   UNL     1       9.294   0.096   0.000  0.00  0.00    +0.000 A 
ATOM     21  C   UNL     1       9.294  -0.764   0.000  0.00  0.00    +0.000 A 
BRANCH  21  22
ATOM     22  C   UNL     1      10.007  -1.179   0.000  0.00  0.00    +0.000 A 
ATOM     23  C   UNL     1      10.004  -2.004   0.000  0.00  0.00    +0.000 A 
ATOM     24  C   UNL     1      10.723  -0.769   0.000  0.00  0.00    +0.000 A 
ATOM     25  C   UNL     1      10.716  -2.419   0.000  0.00  0.00    +0.000 A 
ATOM     26  C   UNL     1      11.436  -1.185   0.000  0.00  0.00    +0.000 A 
ATOM     27  C   UNL     1      11.432  -2.010   0.000  0.00  0.00    +0.000 A 
BRANCH  27  28
ATOM     28  O   UNL     1      12.145  -2.425   0.000  0.00  0.00    +0.000 OA
ATOM     29  C   UNL     1      12.861  -2.015   0.000  0.00  0.00    +0.000 C 
ENDBRANCH  27  28
ENDBRANCH  21  22
ENDBRANCH   6  13
BRANCH   8  31
ATOM     30  O   UNL     1       4.236   2.966   0.000  0.00  0.00    +0.000 OA
ATOM     31  C   UNL     1       4.951   2.553   0.000  0.00  0.00    +0.000 C 
ENDBRANCH   8  31
BRANCH   4  32
ATOM     32  O   UNL     1       4.951  -0.747   0.000  0.00  0.00    +0.000 OA
BRANCH  32  37
ATOM     33  O   UNL     1       3.522  -0.747   0.000  0.00  0.00    +0.000 OA
ATOM     34  O   UNL     1       4.951  -2.397   0.000  0.00  0.00    +0.000 OA
ATOM     35  O   UNL     1       3.522  -3.222   0.000  0.00  0.00    +0.000 OA
ATOM     36  O   UNL     1       2.093  -2.397   0.000  0.00  0.00    +0.000 OA
ATOM     37  C   UNL     1       4.236  -1.159   0.000  0.00  0.00    +0.000 C 
ATOM     38  C   UNL     1       4.236  -1.984   0.000  0.00  0.00    +0.000 C 
ATOM     39  C   UNL     1       3.522  -2.397   0.000  0.00  0.00    +0.000 C 
ATOM     40  C   UNL     1       2.808  -1.984   0.000  0.00  0.00    +0.000 C 
ATOM     41  C   UNL     1       2.808  -1.159   0.000  0.00  0.00    +0.000 C 
ATOM     42  C   UNL     1       2.093  -0.747   0.000  0.00  0.00    +0.000 C 
ENDBRANCH  32  37
ENDBRANCH   4  32
TORSDOF 6
