REMARK  Name = 14887602
REMARK  7 active torsions:
REMARK  status: ('A' for Active; 'I' for Inactive)
REMARK    1  A    between atoms: O_3  and  C_24
REMARK    2  A    between atoms: O_3  and  C_31
REMARK    3  A    between atoms: O_7  and  C_28
REMARK    4  A    between atoms: O_7  and  C_33
REMARK    5  A    between atoms: C_23  and  C_30
REMARK    6  A    between atoms: C_29  and  C_32
REMARK    7  A    between atoms: C_36  and  C_40
REMARK                            x       y       z     vdW  Elec       q    Type
REMARK                         _______ _______ _______ _____ _____    ______ ____
ROOT
ATOM      1  O   UNL     1       6.380  -0.230   0.000  0.00  0.00    +0.000 OA
ATOM      2  O   UNL     1       4.236  -1.467   0.000  0.00  0.00    +0.000 OA
ATOM      3  O   UNL     1       4.941   2.302   0.000  0.00  0.00    +0.000 OA
ATOM      4  O   UNL     1       3.490  -0.233   0.000  0.00  0.00    +0.000 OA
ATOM      5  C   UNL     1       5.665  -1.467   0.000  0.00  0.00    +0.000 A 
ATOM      6  C   UNL     1       5.679   1.042   0.000  0.00  0.00    +0.000 A 
ATOM      7  C   UNL     1       5.665   0.183   0.000  0.00  0.00    +0.000 A 
ATOM      8  C   UNL     1       4.951  -0.230   0.000  0.00  0.00    +0.000 A 
ATOM      9  C   UNL     1       6.380  -1.055   0.000  0.00  0.00    +0.000 A 
ATOM     10  C   UNL     1       4.951  -1.055   0.000  0.00  0.00    +0.000 A 
ATOM     11  C   UNL     1       4.938   1.477   0.000  0.00  0.00    +0.000 A 
ATOM     12  C   UNL     1       4.200   0.188   0.000  0.00  0.00    +0.000 A 
ATOM     13  C   UNL     1       4.194   1.048   0.000  0.00  0.00    +0.000 A 
ENDROOT
BRANCH   9  16
ATOM     14  O   UNL     1       9.238  -1.055   0.000  0.00  0.00    +0.000 OA
ATOM     15  O   UNL     1       9.238  -2.705   0.000  0.00  0.00    +0.000 OA
ATOM     16  C   UNL     1       7.094  -1.467   0.000  0.00  0.00    +0.000 A 
ATOM     17  C   UNL     1       7.809  -1.055   0.000  0.00  0.00    +0.000 A 
ATOM     18  C   UNL     1       7.094  -2.292   0.000  0.00  0.00    +0.000 A 
ATOM     19  C   UNL     1       8.523  -1.467   0.000  0.00  0.00    +0.000 A 
ATOM     20  C   UNL     1       7.809  -2.705   0.000  0.00  0.00    +0.000 A 
ATOM     21  C   UNL     1       8.523  -2.292   0.000  0.00  0.00    +0.000 A 
ENDBRANCH   9  16
BRANCH   5  22
ATOM     22  O   UNL     1       5.665  -2.292   0.000  0.00  0.00    +0.000 OA
BRANCH  22  31
ATOM     23  O   UNL     1       4.236  -2.292   0.000  0.00  0.00    +0.000 OA
ATOM     24  O   UNL     1       4.236  -4.767   0.000  0.00  0.00    +0.000 OA
ATOM     25  O   UNL     1       2.808  -3.942   0.000  0.00  0.00    +0.000 OA
ATOM     26  O   UNL     1       5.665  -3.942   0.000  0.00  0.00    +0.000 OA
ATOM     27  C   UNL     1       4.236  -3.942   0.000  0.00  0.00    +0.000 C 
ATOM     28  C   UNL     1       3.522  -3.530   0.000  0.00  0.00    +0.000 C 
ATOM     29  C   UNL     1       4.951  -3.530   0.000  0.00  0.00    +0.000 C 
ATOM     30  C   UNL     1       3.522  -2.705   0.000  0.00  0.00    +0.000 C 
ATOM     31  C   UNL     1       4.951  -2.705   0.000  0.00  0.00    +0.000 C 
BRANCH  30  33
ATOM     32  O   UNL     1       2.093  -2.705   0.000  0.00  0.00    +0.000 OA
ATOM     33  C   UNL     1       2.808  -2.292   0.000  0.00  0.00    +0.000 C 
ENDBRANCH  30  33
ENDBRANCH  22  31
ENDBRANCH   5  22
BRANCH   6  34
ATOM     34  O   UNL     1       6.398   1.446   0.000  0.00  0.00    +0.000 OA
BRANCH  34  42
ATOM     35  O   UNL     1       5.698   2.692   0.000  0.00  0.00    +0.000 OA
ATOM     36  O   UNL     1       7.855   3.904   0.000  0.00  0.00    +0.000 OA
ATOM     37  O   UNL     1       7.836   2.255   0.000  0.00  0.00    +0.000 OA
ATOM     38  O   UNL     1       6.436   4.746   0.000  0.00  0.00    +0.000 OA
ATOM     39  C   UNL     1       7.136   3.500   0.000  0.00  0.00    +0.000 C 
ATOM     40  C   UNL     1       7.127   2.675   0.000  0.00  0.00    +0.000 C 
ATOM     41  C   UNL     1       6.426   3.921   0.000  0.00  0.00    +0.000 C 
ATOM     42  C   UNL     1       6.407   2.271   0.000  0.00  0.00    +0.000 C 
ATOM     43  C   UNL     1       5.707   3.517   0.000  0.00  0.00    +0.000 C 
BRANCH  43  46
ATOM     44  O   UNL     1       5.007   4.762   0.000  0.00  0.00    +0.000 OA
ATOM     45  O   UNL     1       4.278   3.533   0.000  0.00  0.00    +0.000 OA
ATOM     46  C   UNL     1       4.997   3.937   0.000  0.00  0.00    +0.000 C 
ENDBRANCH  43  46
ENDBRANCH  34  42
ENDBRANCH   6  34
TORSDOF 7
