REMARK  Name = 74977719
REMARK  6 active torsions:
REMARK  status: ('A' for Active; 'I' for Inactive)
REMARK    1  A    between atoms: O_1  and  C_16
REMARK    2  A    between atoms: O_1  and  C_21
REMARK    3  A    between atoms: O_15  and  C_42
REMARK    4  A    between atoms: C_18  and  C_26
REMARK    5  A    between atoms: C_20  and  C_27
REMARK    6  A    between atoms: C_35  and  C_37
REMARK                            x       y       z     vdW  Elec       q    Type
REMARK                         _______ _______ _______ _____ _____    ______ ____
ROOT
ATOM      1  O   UNL     1       7.081   0.338   0.000  0.00  0.00    +0.000 OA
ATOM      2  O   UNL     1       5.665  -2.171   0.000  0.00  0.00    +0.000 OA
ATOM      3  O   UNL     1       8.523  -2.171   0.000  0.00  0.00    +0.000 OA
ATOM      4  O   UNL     1       9.269  -0.936   0.000  0.00  0.00    +0.000 OA
ATOM      5  C   UNL     1       6.380  -0.933   0.000  0.00  0.00    +0.000 A 
ATOM      6  C   UNL     1       7.094  -0.521   0.000  0.00  0.00    +0.000 A 
ATOM      7  C   UNL     1       6.380  -1.758   0.000  0.00  0.00    +0.000 A 
ATOM      8  C   UNL     1       7.809  -0.933   0.000  0.00  0.00    +0.000 A 
ATOM      9  C   UNL     1       7.094  -2.171   0.000  0.00  0.00    +0.000 A 
ATOM     10  C   UNL     1       7.809  -1.758   0.000  0.00  0.00    +0.000 A 
ATOM     11  C   UNL     1       8.559  -0.515   0.000  0.00  0.00    +0.000 A 
ATOM     12  C   UNL     1       7.822   0.774   0.000  0.00  0.00    +0.000 A 
ATOM     13  C   UNL     1       8.566   0.344   0.000  0.00  0.00    +0.000 A 
ENDROOT
BRANCH   5  19
ATOM     14  O   UNL     1       5.665   0.304   0.000  0.00  0.00    +0.000 OA
ATOM     15  O   UNL     1       3.522  -0.933   0.000  0.00  0.00    +0.000 OA
ATOM     16  O   UNL     1       3.522   0.717   0.000  0.00  0.00    +0.000 OA
ATOM     17  C   UNL     1       4.951  -0.933   0.000  0.00  0.00    +0.000 C 
ATOM     18  C   UNL     1       4.236  -0.521   0.000  0.00  0.00    +0.000 C 
ATOM     19  C   UNL     1       5.665  -0.521   0.000  0.00  0.00    +0.000 C 
ATOM     20  C   UNL     1       4.236   0.304   0.000  0.00  0.00    +0.000 C 
ATOM     21  C   UNL     1       4.951   0.717   0.000  0.00  0.00    +0.000 C 
BRANCH  21  23
ATOM     22  O   UNL     1       4.236   1.954   0.000  0.00  0.00    +0.000 OA
ATOM     23  C   UNL     1       4.951   1.542   0.000  0.00  0.00    +0.000 C 
ENDBRANCH  21  23
BRANCH  17  24
ATOM     24  O   UNL     1       4.951  -1.758   0.000  0.00  0.00    +0.000 OA
BRANCH  24  29
ATOM     25  O   UNL     1       3.522  -1.758   0.000  0.00  0.00    +0.000 OA
ATOM     26  O   UNL     1       4.951  -3.408   0.000  0.00  0.00    +0.000 OA
ATOM     27  O   UNL     1       3.522  -4.233   0.000  0.00  0.00    +0.000 OA
ATOM     28  O   UNL     1       2.093  -3.408   0.000  0.00  0.00    +0.000 OA
ATOM     29  C   UNL     1       4.236  -2.171   0.000  0.00  0.00    +0.000 C 
ATOM     30  C   UNL     1       4.236  -2.996   0.000  0.00  0.00    +0.000 C 
ATOM     31  C   UNL     1       3.522  -3.408   0.000  0.00  0.00    +0.000 C 
ATOM     32  C   UNL     1       2.808  -2.996   0.000  0.00  0.00    +0.000 C 
ATOM     33  C   UNL     1       2.808  -2.171   0.000  0.00  0.00    +0.000 C 
ATOM     34  C   UNL     1       2.093  -1.758   0.000  0.00  0.00    +0.000 C 
ENDBRANCH  24  29
ENDBRANCH  17  24
ENDBRANCH   5  19
BRANCH  12  36
ATOM     35  O   UNL     1       6.383   3.243   0.000  0.00  0.00    +0.000 OA
ATOM     36  C   UNL     1       7.819   1.599   0.000  0.00  0.00    +0.000 A 
ATOM     37  C   UNL     1       7.103   2.009   0.000  0.00  0.00    +0.000 A 
ATOM     38  C   UNL     1       8.532   2.014   0.000  0.00  0.00    +0.000 A 
ATOM     39  C   UNL     1       7.099   2.833   0.000  0.00  0.00    +0.000 A 
ATOM     40  C   UNL     1       8.528   2.839   0.000  0.00  0.00    +0.000 A 
ATOM     41  C   UNL     1       7.812   3.249   0.000  0.00  0.00    +0.000 A 
BRANCH  41  42
ATOM     42  O   UNL     1       7.809   4.074   0.000  0.00  0.00    +0.000 OA
ATOM     43  C   UNL     1       8.522   4.489   0.000  0.00  0.00    +0.000 C 
ENDBRANCH  41  42
ENDBRANCH  12  36
TORSDOF 6
