REMARK  Name = 101248035
REMARK  7 active torsions:
REMARK  status: ('A' for Active; 'I' for Inactive)
REMARK    1  A    between atoms: O_1  and  C_16
REMARK    2  A    between atoms: O_1  and  C_20
REMARK    3  A    between atoms: O_7  and  C_22
REMARK    4  A    between atoms: O_7  and  C_27
REMARK    5  A    between atoms: C_17  and  C_25
REMARK    6  A    between atoms: C_23  and  C_26
REMARK    7  A    between atoms: C_34  and  C_36
REMARK                            x       y       z     vdW  Elec       q    Type
REMARK                         _______ _______ _______ _____ _____    ______ ____
ROOT
ATOM      1  O   UNL     1       5.665  -1.386   0.000  0.00  0.00    +0.000 OA
ENDROOT
BRANCH   1   5
ATOM      2  O   UNL     1       7.114   1.141   0.000  0.00  0.00    +0.000 OA
ATOM      3  O   UNL     1       4.225   1.155   0.000  0.00  0.00    +0.000 OA
ATOM      4  O   UNL     1       4.975   2.387   0.000  0.00  0.00    +0.000 OA
ATOM      5  C   UNL     1       5.665  -0.561   0.000  0.00  0.00    +0.000 A 
ATOM      6  C   UNL     1       6.408  -0.128   0.000  0.00  0.00    +0.000 A 
ATOM      7  C   UNL     1       4.923  -0.128   0.000  0.00  0.00    +0.000 A 
ATOM      8  C   UNL     1       6.398   0.731   0.000  0.00  0.00    +0.000 A 
ATOM      9  C   UNL     1       4.933   0.731   0.000  0.00  0.00    +0.000 A 
ATOM     10  C   UNL     1       5.685   1.146   0.000  0.00  0.00    +0.000 A 
ATOM     11  C   UNL     1       5.688   1.971   0.000  0.00  0.00    +0.000 A 
ATOM     12  C   UNL     1       7.117   1.966   0.000  0.00  0.00    +0.000 A 
ATOM     13  C   UNL     1       6.404   2.381   0.000  0.00  0.00    +0.000 A 
BRANCH  12  16
ATOM     14  O   UNL     1       9.975   1.955   0.000  0.00  0.00    +0.000 OA
ATOM     15  O   UNL     1       9.981   3.605   0.000  0.00  0.00    +0.000 OA
ATOM     16  C   UNL     1       7.833   2.376   0.000  0.00  0.00    +0.000 A 
ATOM     17  C   UNL     1       8.546   1.960   0.000  0.00  0.00    +0.000 A 
ATOM     18  C   UNL     1       7.836   3.201   0.000  0.00  0.00    +0.000 A 
ATOM     19  C   UNL     1       9.262   2.370   0.000  0.00  0.00    +0.000 A 
ATOM     20  C   UNL     1       8.552   3.610   0.000  0.00  0.00    +0.000 A 
ATOM     21  C   UNL     1       9.265   3.195   0.000  0.00  0.00    +0.000 A 
ENDBRANCH  12  16
ENDBRANCH   1   5
BRANCH   1  28
ATOM     22  O   UNL     1       4.236  -1.386   0.000  0.00  0.00    +0.000 OA
ATOM     23  O   UNL     1       4.236  -3.861   0.000  0.00  0.00    +0.000 OA
ATOM     24  O   UNL     1       2.808  -3.036   0.000  0.00  0.00    +0.000 OA
ATOM     25  C   UNL     1       4.951  -2.623   0.000  0.00  0.00    +0.000 C 
ATOM     26  C   UNL     1       4.236  -3.036   0.000  0.00  0.00    +0.000 C 
ATOM     27  C   UNL     1       3.522  -2.623   0.000  0.00  0.00    +0.000 C 
ATOM     28  C   UNL     1       4.951  -1.798   0.000  0.00  0.00    +0.000 C 
ATOM     29  C   UNL     1       3.522  -1.798   0.000  0.00  0.00    +0.000 C 
BRANCH  29  31
ATOM     30  O   UNL     1       2.093  -1.798   0.000  0.00  0.00    +0.000 OA
ATOM     31  C   UNL     1       2.808  -1.386   0.000  0.00  0.00    +0.000 C 
ENDBRANCH  29  31
BRANCH  25  32
ATOM     32  O   UNL     1       5.665  -3.036   0.000  0.00  0.00    +0.000 OA
BRANCH  32  38
ATOM     33  O   UNL     1       6.466  -1.803   0.000  0.00  0.00    +0.000 OA
ATOM     34  O   UNL     1       8.400  -1.933   0.000  0.00  0.00    +0.000 OA
ATOM     35  O   UNL     1       7.305  -3.766   0.000  0.00  0.00    +0.000 OA
ATOM     36  C   UNL     1       7.686  -2.346   0.000  0.00  0.00    +0.000 C 
ATOM     37  C   UNL     1       7.133  -2.959   0.000  0.00  0.00    +0.000 C 
ATOM     38  C   UNL     1       6.380  -2.623   0.000  0.00  0.00    +0.000 C 
ATOM     39  C   UNL     1       7.273  -1.631   0.000  0.00  0.00    +0.000 C 
BRANCH  36  41
ATOM     40  O   UNL     1       9.083  -2.643   0.000  0.00  0.00    +0.000 OA
ATOM     41  C   UNL     1       8.299  -2.898   0.000  0.00  0.00    +0.000 C 
ENDBRANCH  36  41
ENDBRANCH  32  38
ENDBRANCH  25  32
ENDBRANCH   1  28
TORSDOF 7
