REMARK  Name = 74977996
REMARK  6 active torsions:
REMARK  status: ('A' for Active; 'I' for Inactive)
REMARK    1  A    between atoms: O_1  and  C_16
REMARK    2  A    between atoms: O_1  and  C_21
REMARK    3  A    between atoms: O_4  and  C_20
REMARK    4  A    between atoms: O_4  and  C_27
REMARK    5  A    between atoms: C_19  and  C_25
REMARK    6  A    between atoms: C_28  and  C_32
REMARK                            x       y       z     vdW  Elec       q    Type
REMARK                         _______ _______ _______ _____ _____    ______ ____
ROOT
ATOM      1  O   UNL     1       5.665   0.177   0.000  0.00  0.00    +0.000 OA
ENDROOT
BRANCH   1   6
ATOM      2  O   UNL     1       6.380   2.239   0.000  0.00  0.00    +0.000 OA
ATOM      3  O   UNL     1       4.236   1.002   0.000  0.00  0.00    +0.000 OA
ATOM      4  O   UNL     1       3.490   2.237   0.000  0.00  0.00    +0.000 OA
ATOM      5  O   UNL     1       4.941   4.771   0.000  0.00  0.00    +0.000 OA
ATOM      6  C   UNL     1       5.665   1.002   0.000  0.00  0.00    +0.000 A 
ATOM      7  C   UNL     1       6.380   1.414   0.000  0.00  0.00    +0.000 A 
ATOM      8  C   UNL     1       4.951   1.414   0.000  0.00  0.00    +0.000 A 
ATOM      9  C   UNL     1       4.951   2.239   0.000  0.00  0.00    +0.000 A 
ATOM     10  C   UNL     1       5.665   2.652   0.000  0.00  0.00    +0.000 A 
ATOM     11  C   UNL     1       4.200   2.658   0.000  0.00  0.00    +0.000 A 
ATOM     12  C   UNL     1       5.679   3.511   0.000  0.00  0.00    +0.000 A 
ATOM     13  C   UNL     1       4.194   3.517   0.000  0.00  0.00    +0.000 A 
ATOM     14  C   UNL     1       4.938   3.946   0.000  0.00  0.00    +0.000 A 
BRANCH   7  16
ATOM     15  O   UNL     1       9.238  -0.236   0.000  0.00  0.00    +0.000 OA
ATOM     16  C   UNL     1       7.094   1.002   0.000  0.00  0.00    +0.000 A 
ATOM     17  C   UNL     1       7.094   0.177   0.000  0.00  0.00    +0.000 A 
ATOM     18  C   UNL     1       7.809   1.414   0.000  0.00  0.00    +0.000 A 
ATOM     19  C   UNL     1       7.809  -0.236   0.000  0.00  0.00    +0.000 A 
ATOM     20  C   UNL     1       8.523   1.002   0.000  0.00  0.00    +0.000 A 
ATOM     21  C   UNL     1       8.523   0.177   0.000  0.00  0.00    +0.000 A 
ENDBRANCH   7  16
ENDBRANCH   1   6
BRANCH   1  29
ATOM     22  O   UNL     1       4.236   0.177   0.000  0.00  0.00    +0.000 OA
ATOM     23  O   UNL     1       4.236  -2.298   0.000  0.00  0.00    +0.000 OA
ATOM     24  O   UNL     1       2.808  -1.473   0.000  0.00  0.00    +0.000 OA
ATOM     25  C   UNL     1       4.951  -1.061   0.000  0.00  0.00    +0.000 C 
ATOM     26  C   UNL     1       4.236  -1.473   0.000  0.00  0.00    +0.000 C 
ATOM     27  C   UNL     1       3.522  -1.061   0.000  0.00  0.00    +0.000 C 
ATOM     28  C   UNL     1       3.522  -0.236   0.000  0.00  0.00    +0.000 C 
ATOM     29  C   UNL     1       4.951  -0.236   0.000  0.00  0.00    +0.000 C 
BRANCH  28  31
ATOM     30  O   UNL     1       2.093  -0.236   0.000  0.00  0.00    +0.000 OA
ATOM     31  C   UNL     1       2.808   0.177   0.000  0.00  0.00    +0.000 C 
ENDBRANCH  28  31
BRANCH  25  32
ATOM     32  O   UNL     1       5.665  -1.473   0.000  0.00  0.00    +0.000 OA
BRANCH  32  37
ATOM     33  O   UNL     1       4.951  -2.711   0.000  0.00  0.00    +0.000 OA
ATOM     34  O   UNL     1       7.094  -2.298   0.000  0.00  0.00    +0.000 OA
ATOM     35  O   UNL     1       7.094  -3.948   0.000  0.00  0.00    +0.000 OA
ATOM     36  O   UNL     1       5.665  -4.773   0.000  0.00  0.00    +0.000 OA
ATOM     37  C   UNL     1       5.665  -2.298   0.000  0.00  0.00    +0.000 C 
ATOM     38  C   UNL     1       6.380  -2.711   0.000  0.00  0.00    +0.000 C 
ATOM     39  C   UNL     1       6.380  -3.536   0.000  0.00  0.00    +0.000 C 
ATOM     40  C   UNL     1       5.665  -3.948   0.000  0.00  0.00    +0.000 C 
ATOM     41  C   UNL     1       4.951  -3.536   0.000  0.00  0.00    +0.000 C 
ENDBRANCH  32  37
ENDBRANCH  25  32
ENDBRANCH   1  29
TORSDOF 6
