REMARK  Name = 74977543
REMARK  6 active torsions:
REMARK  status: ('A' for Active; 'I' for Inactive)
REMARK    1  A    between atoms: O_15  and  C_42
REMARK    2  A    between atoms: C_16  and  C_26
REMARK    3  A    between atoms: C_18  and  C_27
REMARK    4  A    between atoms: C_24  and  C_29
REMARK    5  A    between atoms: C_25  and  C_32
REMARK    6  A    between atoms: C_33  and  C_37
REMARK                            x       y       z     vdW  Elec       q    Type
REMARK                         _______ _______ _______ _____ _____    ______ ____
ROOT
ATOM      1  O   UNL     1       7.864  -0.965   0.000  0.00  0.00    +0.000 OA
ATOM      2  O   UNL     1       6.422   1.538   0.000  0.00  0.00    +0.000 OA
ATOM      3  O   UNL     1       4.952  -0.985   0.000  0.00  0.00    +0.000 OA
ATOM      4  O   UNL     1       7.864   1.510   0.000  0.00  0.00    +0.000 OA
ATOM      5  C   UNL     1       8.579   0.272   0.000  0.00  0.00    +0.000 A 
ATOM      6  C   UNL     1       5.665   0.290   0.000  0.00  0.00    +0.000 A 
ATOM      7  C   UNL     1       7.150   0.272   0.000  0.00  0.00    +0.000 A 
ATOM      8  C   UNL     1       6.412   0.714   0.000  0.00  0.00    +0.000 A 
ATOM      9  C   UNL     1       7.864   0.685   0.000  0.00  0.00    +0.000 A 
ATOM     10  C   UNL     1       8.579  -0.553   0.000  0.00  0.00    +0.000 A 
ATOM     11  C   UNL     1       7.150  -0.553   0.000  0.00  0.00    +0.000 A 
ATOM     12  C   UNL     1       5.665  -0.570   0.000  0.00  0.00    +0.000 A 
ATOM     13  C   UNL     1       6.412  -0.994   0.000  0.00  0.00    +0.000 A 
ENDROOT
BRANCH   5  18
ATOM     14  O   UNL     1      10.008   0.272   0.000  0.00  0.00    +0.000 OA
ATOM     15  O   UNL     1       8.579   1.922   0.000  0.00  0.00    +0.000 OA
ATOM     16  O   UNL     1      10.008   2.747   0.000  0.00  0.00    +0.000 OA
ATOM     17  O   UNL     1      11.437   1.922   0.000  0.00  0.00    +0.000 OA
ATOM     18  C   UNL     1       9.293   0.685   0.000  0.00  0.00    +0.000 C 
ATOM     19  C   UNL     1       9.293   1.510   0.000  0.00  0.00    +0.000 C 
ATOM     20  C   UNL     1      10.008   1.922   0.000  0.00  0.00    +0.000 C 
ATOM     21  C   UNL     1      10.722   1.510   0.000  0.00  0.00    +0.000 C 
ATOM     22  C   UNL     1      10.722   0.685   0.000  0.00  0.00    +0.000 C 
BRANCH  22  24
ATOM     23  O   UNL     1      12.151   0.685   0.000  0.00  0.00    +0.000 OA
ATOM     24  C   UNL     1      11.437   0.272   0.000  0.00  0.00    +0.000 C 
ENDBRANCH  22  24
ENDBRANCH   5  18
BRANCH   6  29
ATOM     25  O   UNL     1       4.236   0.295   0.000  0.00  0.00    +0.000 OA
ATOM     26  O   UNL     1       5.671   1.940   0.000  0.00  0.00    +0.000 OA
ATOM     27  O   UNL     1       4.245   2.770   0.000  0.00  0.00    +0.000 OA
ATOM     28  O   UNL     1       2.813   1.951   0.000  0.00  0.00    +0.000 OA
ATOM     29  C   UNL     1       4.952   0.705   0.000  0.00  0.00    +0.000 C 
ATOM     30  C   UNL     1       4.955   1.530   0.000  0.00  0.00    +0.000 C 
ATOM     31  C   UNL     1       4.242   1.945   0.000  0.00  0.00    +0.000 C 
ATOM     32  C   UNL     1       3.526   1.535   0.000  0.00  0.00    +0.000 C 
ATOM     33  C   UNL     1       3.523   0.710   0.000  0.00  0.00    +0.000 C 
BRANCH  33  35
ATOM     34  O   UNL     1       2.094   0.716   0.000  0.00  0.00    +0.000 OA
ATOM     35  C   UNL     1       2.807   0.301   0.000  0.00  0.00    +0.000 C 
ENDBRANCH  33  35
ENDBRANCH   6  29
BRANCH  10  36
ATOM     36  C   UNL     1       9.293  -0.965   0.000  0.00  0.00    +0.000 A 
ATOM     37  C   UNL     1      10.008  -0.553   0.000  0.00  0.00    +0.000 A 
ATOM     38  C   UNL     1       9.293  -1.790   0.000  0.00  0.00    +0.000 A 
ATOM     39  C   UNL     1      10.722  -0.965   0.000  0.00  0.00    +0.000 A 
ATOM     40  C   UNL     1      10.008  -2.203   0.000  0.00  0.00    +0.000 A 
ATOM     41  C   UNL     1      10.722  -1.790   0.000  0.00  0.00    +0.000 A 
BRANCH  41  42
ATOM     42  O   UNL     1      11.437  -2.203   0.000  0.00  0.00    +0.000 OA
ATOM     43  C   UNL     1      11.437  -3.028   0.000  0.00  0.00    +0.000 C 
ENDBRANCH  41  42
ENDBRANCH  10  36
TORSDOF 6
