REMARK  Name = 6290103
REMARK  8 active torsions:
REMARK  status: ('A' for Active; 'I' for Inactive)
REMARK    1  A    between atoms: O_2  and  C_17
REMARK    2  A    between atoms: O_2  and  C_19
REMARK    3  A    between atoms: O_6  and  C_18
REMARK    4  A    between atoms: O_6  and  C_29
REMARK    5  A    between atoms: C_15  and  C_18
REMARK    6  A    between atoms: C_20  and  C_28
REMARK    7  A    between atoms: C_29  and  C_32
REMARK    8  A    between atoms: C_36  and  C_37
REMARK                            x       y       z     vdW  Elec       q    Type
REMARK                         _______ _______ _______ _____ _____    ______ ____
ROOT
ATOM      1  O   UNL     1       9.238  -1.386   0.000  0.00  0.00    +0.000 OA
ATOM      2  O   UNL     1       7.809  -3.036   0.000  0.00  0.00    +0.000 OA
ATOM      3  O   UNL     1       9.238  -3.861   0.000  0.00  0.00    +0.000 OA
ATOM      4  O   UNL     1      10.667  -3.036   0.000  0.00  0.00    +0.000 OA
ATOM      5  C   UNL     1       8.523  -2.623   0.000  0.00  0.00    +0.000 C 
ATOM      6  C   UNL     1       9.238  -3.036   0.000  0.00  0.00    +0.000 C 
ATOM      7  C   UNL     1       8.523  -1.798   0.000  0.00  0.00    +0.000 C 
ATOM      8  C   UNL     1       9.952  -2.623   0.000  0.00  0.00    +0.000 C 
ATOM      9  C   UNL     1       9.952  -1.798   0.000  0.00  0.00    +0.000 C 
ENDROOT
BRANCH   9  10
ATOM     10  O   UNL     1      10.667  -1.386   0.000  0.00  0.00    +0.000 OA
BRANCH  10  14
ATOM     11  O   UNL     1      12.115   1.141   0.000  0.00  0.00    +0.000 OA
ATOM     12  O   UNL     1       9.226   1.155   0.000  0.00  0.00    +0.000 OA
ATOM     13  O   UNL     1       9.977   2.387   0.000  0.00  0.00    +0.000 OA
ATOM     14  C   UNL     1      10.667  -0.561   0.000  0.00  0.00    +0.000 A 
ATOM     15  C   UNL     1      12.118   1.966   0.000  0.00  0.00    +0.000 C 
ATOM     16  C   UNL     1      11.399   0.731   0.000  0.00  0.00    +0.000 A 
ATOM     17  C   UNL     1      11.409  -0.128   0.000  0.00  0.00    +0.000 A 
ATOM     18  C   UNL     1      10.686   1.146   0.000  0.00  0.00    +0.000 A 
ATOM     19  C   UNL     1      11.406   2.381   0.000  0.00  0.00    +0.000 C 
ATOM     20  C   UNL     1       9.924  -0.128   0.000  0.00  0.00    +0.000 A 
ATOM     21  C   UNL     1      10.690   1.971   0.000  0.00  0.00    +0.000 C 
ATOM     22  C   UNL     1       9.934   0.731   0.000  0.00  0.00    +0.000 A 
BRANCH  15  24
ATOM     23  O   UNL     1      14.983   3.605   0.000  0.00  0.00    +0.000 OA
ATOM     24  C   UNL     1      12.835   2.376   0.000  0.00  0.00    +0.000 A 
ATOM     25  C   UNL     1      12.838   3.201   0.000  0.00  0.00    +0.000 A 
ATOM     26  C   UNL     1      13.547   1.960   0.000  0.00  0.00    +0.000 A 
ATOM     27  C   UNL     1      13.554   3.610   0.000  0.00  0.00    +0.000 A 
ATOM     28  C   UNL     1      14.263   2.370   0.000  0.00  0.00    +0.000 A 
ATOM     29  C   UNL     1      14.267   3.195   0.000  0.00  0.00    +0.000 A 
ENDBRANCH  15  24
ENDBRANCH  10  14
ENDBRANCH   9  10
BRANCH   7  30
ATOM     30  C   UNL     1       7.809  -1.386   0.000  0.00  0.00    +0.000 C 
BRANCH  30  31
ATOM     31  O   UNL     1       7.094  -1.798   0.000  0.00  0.00    +0.000 OA
BRANCH  31  33
ATOM     32  O   UNL     1       6.380  -0.561   0.000  0.00  0.00    +0.000 OA
ATOM     33  C   UNL     1       6.380  -1.386   0.000  0.00  0.00    +0.000 C 
BRANCH  33  34
ATOM     34  C   UNL     1       5.665  -1.798   0.000  0.00  0.00    +0.000 C 
ATOM     35  C   UNL     1       4.951  -1.386   0.000  0.00  0.00    +0.000 C 
BRANCH  35  37
ATOM     36  O   UNL     1       2.093  -3.036   0.000  0.00  0.00    +0.000 OA
ATOM     37  C   UNL     1       4.236  -1.798   0.000  0.00  0.00    +0.000 A 
ATOM     38  C   UNL     1       4.236  -2.623   0.000  0.00  0.00    +0.000 A 
ATOM     39  C   UNL     1       3.522  -1.386   0.000  0.00  0.00    +0.000 A 
ATOM     40  C   UNL     1       3.522  -3.036   0.000  0.00  0.00    +0.000 A 
ATOM     41  C   UNL     1       2.808  -1.798   0.000  0.00  0.00    +0.000 A 
ATOM     42  C   UNL     1       2.808  -2.623   0.000  0.00  0.00    +0.000 A 
ENDBRANCH  35  37
ENDBRANCH  33  34
ENDBRANCH  31  33
ENDBRANCH  30  31
ENDBRANCH   7  30
TORSDOF 8
