REMARK  Name = 74977525
REMARK  8 active torsions:
REMARK  status: ('A' for Active; 'I' for Inactive)
REMARK    1  A    between atoms: O_2  and  C_13
REMARK    2  A    between atoms: O_2  and  C_21
REMARK    3  A    between atoms: O_3  and  C_14
REMARK    4  A    between atoms: O_3  and  C_20
REMARK    5  A    between atoms: O_4  and  C_17
REMARK    6  A    between atoms: O_4  and  C_19
REMARK    7  A    between atoms: C_15  and  C_18
REMARK    8  A    between atoms: C_30  and  C_32
REMARK                            x       y       z     vdW  Elec       q    Type
REMARK                         _______ _______ _______ _____ _____    ______ ____
ROOT
ATOM      1  O   UNL     1       7.385   1.632   0.000  0.00  0.00    +0.000 OA
ATOM      2  O   UNL     1       4.496   1.645   0.000  0.00  0.00    +0.000 OA
ATOM      3  O   UNL     1       5.247   2.878   0.000  0.00  0.00    +0.000 OA
ATOM      4  C   UNL     1       5.937  -0.070   0.000  0.00  0.00    +0.000 A 
ATOM      5  C   UNL     1       6.679   0.363   0.000  0.00  0.00    +0.000 A 
ATOM      6  C   UNL     1       5.194   0.363   0.000  0.00  0.00    +0.000 A 
ATOM      7  C   UNL     1       6.669   1.222   0.000  0.00  0.00    +0.000 A 
ATOM      8  C   UNL     1       5.957   1.637   0.000  0.00  0.00    +0.000 A 
ATOM      9  C   UNL     1       5.204   1.222   0.000  0.00  0.00    +0.000 A 
ATOM     10  C   UNL     1       5.960   2.462   0.000  0.00  0.00    +0.000 A 
ATOM     11  C   UNL     1       7.389   2.457   0.000  0.00  0.00    +0.000 A 
ATOM     12  C   UNL     1       6.676   2.872   0.000  0.00  0.00    +0.000 A 
ENDROOT
BRANCH  11  14
ATOM     13  O   UNL     1      10.253   4.096   0.000  0.00  0.00    +0.000 OA
ATOM     14  C   UNL     1       8.105   2.866   0.000  0.00  0.00    +0.000 A 
ATOM     15  C   UNL     1       8.108   3.692   0.000  0.00  0.00    +0.000 A 
ATOM     16  C   UNL     1       8.818   2.451   0.000  0.00  0.00    +0.000 A 
ATOM     17  C   UNL     1       8.824   4.101   0.000  0.00  0.00    +0.000 A 
ATOM     18  C   UNL     1       9.534   2.861   0.000  0.00  0.00    +0.000 A 
ATOM     19  C   UNL     1       9.537   3.686   0.000  0.00  0.00    +0.000 A 
ENDBRANCH  11  14
BRANCH   4  20
ATOM     20  O   UNL     1       5.937  -0.895   0.000  0.00  0.00    +0.000 OA
BRANCH  20  27
ATOM     21  O   UNL     1       4.508  -0.895   0.000  0.00  0.00    +0.000 OA
ATOM     22  O   UNL     1       5.937  -2.545   0.000  0.00  0.00    +0.000 OA
ATOM     23  C   UNL     1       3.793  -2.132   0.000  0.00  0.00    +0.000 C 
ATOM     24  C   UNL     1       4.508  -2.545   0.000  0.00  0.00    +0.000 C 
ATOM     25  C   UNL     1       3.793  -1.307   0.000  0.00  0.00    +0.000 C 
ATOM     26  C   UNL     1       5.222  -2.132   0.000  0.00  0.00    +0.000 C 
ATOM     27  C   UNL     1       5.222  -1.307   0.000  0.00  0.00    +0.000 C 
BRANCH  25  29
ATOM     28  O   UNL     1       3.079  -0.070   0.000  0.00  0.00    +0.000 OA
ATOM     29  C   UNL     1       3.079  -0.895   0.000  0.00  0.00    +0.000 C 
ENDBRANCH  25  29
BRANCH  23  30
ATOM     30  O   UNL     1       3.079  -2.545   0.000  0.00  0.00    +0.000 OA
BRANCH  30  32
ATOM     31  O   UNL     1       2.364  -1.307   0.000  0.00  0.00    +0.000 OA
ATOM     32  C   UNL     1       2.364  -2.132   0.000  0.00  0.00    +0.000 C 
ATOM     33  C   UNL     1       1.650  -2.545   0.000  0.00  0.00    +0.000 C 
ENDBRANCH  30  32
ENDBRANCH  23  30
BRANCH  24  34
ATOM     34  O   UNL     1       4.508  -3.370   0.000  0.00  0.00    +0.000 OA
BRANCH  34  36
ATOM     35  O   UNL     1       3.079  -3.370   0.000  0.00  0.00    +0.000 OA
ATOM     36  C   UNL     1       3.793  -3.782   0.000  0.00  0.00    +0.000 C 
ATOM     37  C   UNL     1       3.793  -4.607   0.000  0.00  0.00    +0.000 C 
ENDBRANCH  34  36
ENDBRANCH  24  34
ENDBRANCH  20  27
ENDBRANCH   4  20
TORSDOF 8
