REMARK  Name = 74978385
REMARK  6 active torsions:
REMARK  status: ('A' for Active; 'I' for Inactive)
REMARK    1  A    between atoms: O_1  and  C_16
REMARK    2  A    between atoms: O_1  and  C_19
REMARK    3  A    between atoms: O_5  and  C_25
REMARK    4  A    between atoms: O_5  and  C_28
REMARK    5  A    between atoms: O_13  and  C_39
REMARK    6  A    between atoms: C_29  and  C_32
REMARK                            x       y       z     vdW  Elec       q    Type
REMARK                         _______ _______ _______ _____ _____    ______ ____
ROOT
ATOM      1  O   UNL     1       5.278   2.681   0.000  0.00  0.00    +0.000 OA
ATOM      2  O   UNL     1       5.278   0.206   0.000  0.00  0.00    +0.000 OA
ATOM      3  O   UNL     1       3.836   0.178   0.000  0.00  0.00    +0.000 OA
ATOM      4  C   UNL     1       5.993   1.444   0.000  0.00  0.00    +0.000 A 
ATOM      5  C   UNL     1       5.993   2.269   0.000  0.00  0.00    +0.000 A 
ATOM      6  C   UNL     1       5.278   1.031   0.000  0.00  0.00    +0.000 A 
ATOM      7  C   UNL     1       4.564   1.444   0.000  0.00  0.00    +0.000 A 
ATOM      8  C   UNL     1       4.564   2.269   0.000  0.00  0.00    +0.000 A 
ATOM      9  C   UNL     1       3.826   1.003   0.000  0.00  0.00    +0.000 A 
ATOM     10  C   UNL     1       3.826   2.710   0.000  0.00  0.00    +0.000 A 
ATOM     11  C   UNL     1       3.079   1.427   0.000  0.00  0.00    +0.000 A 
ATOM     12  C   UNL     1       3.079   2.286   0.000  0.00  0.00    +0.000 A 
ENDROOT
BRANCH   5  15
ATOM     13  O   UNL     1       7.422   4.744   0.000  0.00  0.00    +0.000 OA
ATOM     14  O   UNL     1       8.851   3.919   0.000  0.00  0.00    +0.000 OA
ATOM     15  C   UNL     1       6.707   2.681   0.000  0.00  0.00    +0.000 A 
ATOM     16  C   UNL     1       6.707   3.506   0.000  0.00  0.00    +0.000 A 
ATOM     17  C   UNL     1       7.422   2.269   0.000  0.00  0.00    +0.000 A 
ATOM     18  C   UNL     1       7.422   3.919   0.000  0.00  0.00    +0.000 A 
ATOM     19  C   UNL     1       8.136   2.681   0.000  0.00  0.00    +0.000 A 
ATOM     20  C   UNL     1       8.136   3.506   0.000  0.00  0.00    +0.000 A 
ENDBRANCH   5  15
BRANCH  12  21
ATOM     21  O   UNL     1       2.366   2.701   0.000  0.00  0.00    +0.000 OA
ATOM     22  C   UNL     1       1.650   2.291   0.000  0.00  0.00    +0.000 C 
ENDBRANCH  12  21
BRANCH   4  23
ATOM     23  O   UNL     1       6.707   1.031   0.000  0.00  0.00    +0.000 OA
BRANCH  23  31
ATOM     24  O   UNL     1       5.993  -0.206   0.000  0.00  0.00    +0.000 OA
ATOM     25  O   UNL     1       8.136  -1.444   0.000  0.00  0.00    +0.000 OA
ATOM     26  O   UNL     1       8.136   0.206   0.000  0.00  0.00    +0.000 OA
ATOM     27  C   UNL     1       6.707  -1.444   0.000  0.00  0.00    +0.000 C 
ATOM     28  C   UNL     1       7.422  -1.031   0.000  0.00  0.00    +0.000 C 
ATOM     29  C   UNL     1       5.993  -1.031   0.000  0.00  0.00    +0.000 C 
ATOM     30  C   UNL     1       7.422  -0.206   0.000  0.00  0.00    +0.000 C 
ATOM     31  C   UNL     1       6.707   0.206   0.000  0.00  0.00    +0.000 C 
ATOM     32  C   UNL     1       5.278  -1.444   0.000  0.00  0.00    +0.000 C 
BRANCH  27  33
ATOM     33  O   UNL     1       6.707  -2.269   0.000  0.00  0.00    +0.000 OA
BRANCH  33  38
ATOM     34  O   UNL     1       5.278  -2.269   0.000  0.00  0.00    +0.000 OA
ATOM     35  O   UNL     1       6.707  -3.919   0.000  0.00  0.00    +0.000 OA
ATOM     36  O   UNL     1       5.278  -4.744   0.000  0.00  0.00    +0.000 OA
ATOM     37  O   UNL     1       3.849  -3.919   0.000  0.00  0.00    +0.000 OA
ATOM     38  C   UNL     1       5.993  -2.681   0.000  0.00  0.00    +0.000 C 
ATOM     39  C   UNL     1       5.993  -3.506   0.000  0.00  0.00    +0.000 C 
ATOM     40  C   UNL     1       5.278  -3.919   0.000  0.00  0.00    +0.000 C 
ATOM     41  C   UNL     1       4.564  -3.506   0.000  0.00  0.00    +0.000 C 
ATOM     42  C   UNL     1       4.564  -2.681   0.000  0.00  0.00    +0.000 C 
ATOM     43  C   UNL     1       3.849  -2.269   0.000  0.00  0.00    +0.000 C 
ENDBRANCH  33  38
ENDBRANCH  27  33
ENDBRANCH  23  31
ENDBRANCH   4  23
TORSDOF 6
