REMARK  Name = 74977792
REMARK  7 active torsions:
REMARK  status: ('A' for Active; 'I' for Inactive)
REMARK    1  A    between atoms: O_6  and  C_27
REMARK    2  A    between atoms: O_6  and  C_36
REMARK    3  A    between atoms: O_12  and  C_29
REMARK    4  A    between atoms: C_18  and  C_21
REMARK    5  A    between atoms: C_20  and  C_26
REMARK    6  A    between atoms: C_25  and  C_30
REMARK    7  A    between atoms: C_34  and  C_38
REMARK                            x       y       z     vdW  Elec       q    Type
REMARK                         _______ _______ _______ _____ _____    ______ ____
ROOT
ATOM      1  O   UNL     1       6.408   1.567   0.000  0.00  0.00    +0.000 OA
ATOM      2  O   UNL     1       4.975   4.082   0.000  0.00  0.00    +0.000 OA
ATOM      3  O   UNL     1       4.225   2.850   0.000  0.00  0.00    +0.000 OA
ATOM      4  C   UNL     1       7.114   2.836   0.000  0.00  0.00    +0.000 A 
ATOM      5  C   UNL     1       6.398   2.427   0.000  0.00  0.00    +0.000 A 
ATOM      6  C   UNL     1       7.117   3.661   0.000  0.00  0.00    +0.000 A 
ATOM      7  C   UNL     1       5.685   2.842   0.000  0.00  0.00    +0.000 A 
ATOM      8  C   UNL     1       6.404   4.077   0.000  0.00  0.00    +0.000 A 
ATOM      9  C   UNL     1       5.688   3.667   0.000  0.00  0.00    +0.000 A 
ATOM     10  C   UNL     1       5.665   1.135   0.000  0.00  0.00    +0.000 A 
ATOM     11  C   UNL     1       4.933   2.427   0.000  0.00  0.00    +0.000 A 
ATOM     12  C   UNL     1       4.923   1.567   0.000  0.00  0.00    +0.000 A 
ENDROOT
BRANCH   4  19
ATOM     13  O   UNL     1       8.543   2.831   0.000  0.00  0.00    +0.000 OA
ATOM     14  O   UNL     1       7.108   1.186   0.000  0.00  0.00    +0.000 OA
ATOM     15  O   UNL     1       8.533   0.356   0.000  0.00  0.00    +0.000 OA
ATOM     16  O   UNL     1       9.966   1.175   0.000  0.00  0.00    +0.000 OA
ATOM     17  C   UNL     1       7.824   1.596   0.000  0.00  0.00    +0.000 C 
ATOM     18  C   UNL     1       8.537   1.181   0.000  0.00  0.00    +0.000 C 
ATOM     19  C   UNL     1       7.827   2.421   0.000  0.00  0.00    +0.000 C 
ATOM     20  C   UNL     1       9.253   1.591   0.000  0.00  0.00    +0.000 C 
ATOM     21  C   UNL     1       9.256   2.416   0.000  0.00  0.00    +0.000 C 
BRANCH  21  23
ATOM     22  O   UNL     1      10.685   2.410   0.000  0.00  0.00    +0.000 OA
ATOM     23  C   UNL     1       9.972   2.825   0.000  0.00  0.00    +0.000 C 
ENDBRANCH  21  23
ENDBRANCH   4  19
BRANCH  10  25
ATOM     24  C   UNL     1       5.665  -1.340   0.000  0.00  0.00    +0.000 A 
ATOM     25  C   UNL     1       5.665   0.310   0.000  0.00  0.00    +0.000 A 
ATOM     26  C   UNL     1       6.380  -0.928   0.000  0.00  0.00    +0.000 A 
ATOM     27  C   UNL     1       4.951  -0.928   0.000  0.00  0.00    +0.000 A 
ATOM     28  C   UNL     1       6.380  -0.103   0.000  0.00  0.00    +0.000 A 
ATOM     29  C   UNL     1       4.951  -0.103   0.000  0.00  0.00    +0.000 A 
BRANCH  24  30
ATOM     30  O   UNL     1       5.665  -2.165   0.000  0.00  0.00    +0.000 OA
BRANCH  30  39
ATOM     31  O   UNL     1       4.236  -2.165   0.000  0.00  0.00    +0.000 OA
ATOM     32  O   UNL     1       4.236  -4.640   0.000  0.00  0.00    +0.000 OA
ATOM     33  O   UNL     1       2.808  -3.815   0.000  0.00  0.00    +0.000 OA
ATOM     34  O   UNL     1       5.665  -3.815   0.000  0.00  0.00    +0.000 OA
ATOM     35  C   UNL     1       4.236  -3.815   0.000  0.00  0.00    +0.000 C 
ATOM     36  C   UNL     1       3.522  -3.403   0.000  0.00  0.00    +0.000 C 
ATOM     37  C   UNL     1       4.951  -3.403   0.000  0.00  0.00    +0.000 C 
ATOM     38  C   UNL     1       3.522  -2.578   0.000  0.00  0.00    +0.000 C 
ATOM     39  C   UNL     1       4.951  -2.578   0.000  0.00  0.00    +0.000 C 
BRANCH  38  41
ATOM     40  O   UNL     1       2.093  -2.578   0.000  0.00  0.00    +0.000 OA
ATOM     41  C   UNL     1       2.808  -2.165   0.000  0.00  0.00    +0.000 C 
ENDBRANCH  38  41
ENDBRANCH  30  39
ENDBRANCH  24  30
ENDBRANCH  10  25
BRANCH   6  42
ATOM     42  O   UNL     1       7.833   4.071   0.000  0.00  0.00    +0.000 OA
ATOM     43  C   UNL     1       7.836   4.896   0.000  0.00  0.00    +0.000 C 
ENDBRANCH   6  42
TORSDOF 7
