REMARK  Name = 131752667
REMARK  7 active torsions:
REMARK  status: ('A' for Active; 'I' for Inactive)
REMARK    1  A    between atoms: O_3  and  C_20
REMARK    2  A    between atoms: O_3  and  C_25
REMARK    3  A    between atoms: O_6  and  C_23
REMARK    4  A    between atoms: O_6  and  C_27
REMARK    5  A    between atoms: C_16  and  C_25
REMARK    6  A    between atoms: C_24  and  C_26
REMARK    7  A    between atoms: C_28  and  C_32
REMARK                            x       y       z     vdW  Elec       q    Type
REMARK                         _______ _______ _______ _____ _____    ______ ____
ROOT
ATOM      1  O   UNL     1       8.907  -1.061   0.000  0.00  0.00    +0.000 OA
ENDROOT
BRANCH   1   6
ATOM      2  O   UNL     1       9.622   1.002   0.000  0.00  0.00    +0.000 OA
ATOM      3  O   UNL     1       7.478  -0.236   0.000  0.00  0.00    +0.000 OA
ATOM      4  O   UNL     1       6.732   0.999   0.000  0.00  0.00    +0.000 OA
ATOM      5  O   UNL     1       8.183   3.534   0.000  0.00  0.00    +0.000 OA
ATOM      6  C   UNL     1       8.907  -0.236   0.000  0.00  0.00    +0.000 A 
ATOM      7  C   UNL     1       9.622   0.177   0.000  0.00  0.00    +0.000 A 
ATOM      8  C   UNL     1       8.193   0.177   0.000  0.00  0.00    +0.000 A 
ATOM      9  C   UNL     1       8.193   1.002   0.000  0.00  0.00    +0.000 A 
ATOM     10  C   UNL     1       8.907   1.414   0.000  0.00  0.00    +0.000 A 
ATOM     11  C   UNL     1       7.442   1.420   0.000  0.00  0.00    +0.000 A 
ATOM     12  C   UNL     1       8.921   2.273   0.000  0.00  0.00    +0.000 A 
ATOM     13  C   UNL     1       7.435   2.279   0.000  0.00  0.00    +0.000 A 
ATOM     14  C   UNL     1       8.180   2.709   0.000  0.00  0.00    +0.000 A 
BRANCH   7  16
ATOM     15  O   UNL     1      12.480  -1.473   0.000  0.00  0.00    +0.000 OA
ATOM     16  C   UNL     1      10.336  -0.236   0.000  0.00  0.00    +0.000 A 
ATOM     17  C   UNL     1      10.336  -1.061   0.000  0.00  0.00    +0.000 A 
ATOM     18  C   UNL     1      11.051   0.177   0.000  0.00  0.00    +0.000 A 
ATOM     19  C   UNL     1      11.051  -1.473   0.000  0.00  0.00    +0.000 A 
ATOM     20  C   UNL     1      11.765  -0.236   0.000  0.00  0.00    +0.000 A 
ATOM     21  C   UNL     1      11.765  -1.061   0.000  0.00  0.00    +0.000 A 
ENDBRANCH   7  16
ENDBRANCH   1   6
BRANCH   1  30
ATOM     22  O   UNL     1       7.478  -1.061   0.000  0.00  0.00    +0.000 OA
ATOM     23  O   UNL     1       6.049  -2.711   0.000  0.00  0.00    +0.000 OA
ATOM     24  O   UNL     1       7.478  -3.536   0.000  0.00  0.00    +0.000 OA
ATOM     25  O   UNL     1       8.907  -2.711   0.000  0.00  0.00    +0.000 OA
ATOM     26  C   UNL     1       6.764  -1.473   0.000  0.00  0.00    +0.000 C 
ATOM     27  C   UNL     1       6.764  -2.298   0.000  0.00  0.00    +0.000 C 
ATOM     28  C   UNL     1       7.478  -2.711   0.000  0.00  0.00    +0.000 C 
ATOM     29  C   UNL     1       8.193  -2.298   0.000  0.00  0.00    +0.000 C 
ATOM     30  C   UNL     1       8.193  -1.473   0.000  0.00  0.00    +0.000 C 
BRANCH  26  31
ATOM     31  C   UNL     1       6.049  -1.061   0.000  0.00  0.00    +0.000 C 
BRANCH  31  32
ATOM     32  O   UNL     1       5.335  -1.473   0.000  0.00  0.00    +0.000 OA
BRANCH  32  36
ATOM     33  O   UNL     1       3.867  -1.396   0.000  0.00  0.00    +0.000 OA
ATOM     34  O   UNL     1       5.147   0.312   0.000  0.00  0.00    +0.000 OA
ATOM     35  O   UNL     1       3.392   0.685   0.000  0.00  0.00    +0.000 OA
ATOM     36  C   UNL     1       4.620  -1.061   0.000  0.00  0.00    +0.000 C 
ATOM     37  C   UNL     1       4.534  -0.240   0.000  0.00  0.00    +0.000 C 
ATOM     38  C   UNL     1       3.727  -0.069   0.000  0.00  0.00    +0.000 C 
ATOM     39  C   UNL     1       3.315  -0.783   0.000  0.00  0.00    +0.000 C 
BRANCH  39  41
ATOM     40  O   UNL     1       2.159  -1.623   0.000  0.00  0.00    +0.000 OA
ATOM     41  C   UNL     1       2.494  -0.869   0.000  0.00  0.00    +0.000 C 
ENDBRANCH  39  41
ENDBRANCH  32  36
ENDBRANCH  31  32
ENDBRANCH  26  31
ENDBRANCH   1  30
TORSDOF 7
