REMARK  Name = 131750832
REMARK  5 active torsions:
REMARK  status: ('A' for Active; 'I' for Inactive)
REMARK    1  A    between atoms: C_15  and  C_24
REMARK    2  A    between atoms: C_16  and  C_25
REMARK    3  A    between atoms: C_21  and  C_30
REMARK    4  A    between atoms: C_23  and  C_31
REMARK    5  A    between atoms: C_33  and  C_35
REMARK                            x       y       z     vdW  Elec       q    Type
REMARK                         _______ _______ _______ _____ _____    ______ ____
ROOT
ATOM      1  O   UNL     1       7.832  -0.048   0.000  0.00  0.00    +0.000 OA
ATOM      2  O   UNL     1       4.951  -0.019   0.000  0.00  0.00    +0.000 OA
ATOM      3  O   UNL     1       6.380   2.456   0.000  0.00  0.00    +0.000 OA
ATOM      4  O   UNL     1       7.822   2.484   0.000  0.00  0.00    +0.000 OA
ATOM      5  C   UNL     1       6.380  -0.019   0.000  0.00  0.00    +0.000 A 
ATOM      6  C   UNL     1       5.665   1.218   0.000  0.00  0.00    +0.000 A 
ATOM      7  C   UNL     1       5.665   0.393   0.000  0.00  0.00    +0.000 A 
ATOM      8  C   UNL     1       7.094   0.393   0.000  0.00  0.00    +0.000 A 
ATOM      9  C   UNL     1       6.380   1.631   0.000  0.00  0.00    +0.000 A 
ATOM     10  C   UNL     1       7.094   1.218   0.000  0.00  0.00    +0.000 A 
ATOM     11  C   UNL     1       7.832   1.659   0.000  0.00  0.00    +0.000 A 
ATOM     12  C   UNL     1       8.579   0.376   0.000  0.00  0.00    +0.000 A 
ATOM     13  C   UNL     1       8.579   1.235   0.000  0.00  0.00    +0.000 A 
ENDROOT
BRANCH   6  18
ATOM     14  O   UNL     1       4.236   1.218   0.000  0.00  0.00    +0.000 OA
ATOM     15  O   UNL     1       5.665   2.868   0.000  0.00  0.00    +0.000 OA
ATOM     16  O   UNL     1       4.236   3.693   0.000  0.00  0.00    +0.000 OA
ATOM     17  O   UNL     1       2.808   2.868   0.000  0.00  0.00    +0.000 OA
ATOM     18  C   UNL     1       4.951   1.631   0.000  0.00  0.00    +0.000 C 
ATOM     19  C   UNL     1       4.951   2.456   0.000  0.00  0.00    +0.000 C 
ATOM     20  C   UNL     1       4.236   2.868   0.000  0.00  0.00    +0.000 C 
ATOM     21  C   UNL     1       3.522   2.456   0.000  0.00  0.00    +0.000 C 
ATOM     22  C   UNL     1       3.522   1.631   0.000  0.00  0.00    +0.000 C 
BRANCH  22  24
ATOM     23  O   UNL     1       2.093   1.631   0.000  0.00  0.00    +0.000 OA
ATOM     24  C   UNL     1       2.808   1.218   0.000  0.00  0.00    +0.000 C 
ENDBRANCH  22  24
ENDBRANCH   6  18
BRANCH   5  28
ATOM     25  O   UNL     1       7.047  -1.329   0.000  0.00  0.00    +0.000 OA
ATOM     26  O   UNL     1       4.928  -1.074   0.000  0.00  0.00    +0.000 OA
ATOM     27  O   UNL     1       5.482  -2.781   0.000  0.00  0.00    +0.000 OA
ATOM     28  C   UNL     1       6.380  -0.844   0.000  0.00  0.00    +0.000 C 
ATOM     29  C   UNL     1       5.712  -1.329   0.000  0.00  0.00    +0.000 C 
ATOM     30  C   UNL     1       5.967  -2.114   0.000  0.00  0.00    +0.000 C 
ATOM     31  C   UNL     1       6.792  -2.114   0.000  0.00  0.00    +0.000 C 
BRANCH  31  33
ATOM     32  O   UNL     1       6.942  -3.535   0.000  0.00  0.00    +0.000 OA
ATOM     33  C   UNL     1       7.277  -2.781   0.000  0.00  0.00    +0.000 C 
ENDBRANCH  31  33
ENDBRANCH   5  28
BRANCH  12  35
ATOM     34  O   UNL     1      11.431  -1.285   0.000  0.00  0.00    +0.000 OA
ATOM     35  C   UNL     1       9.292  -0.039   0.000  0.00  0.00    +0.000 A 
ATOM     36  C   UNL     1      10.008   0.370   0.000  0.00  0.00    +0.000 A 
ATOM     37  C   UNL     1       9.289  -0.864   0.000  0.00  0.00    +0.000 A 
ATOM     38  C   UNL     1      10.721  -0.045   0.000  0.00  0.00    +0.000 A 
ATOM     39  C   UNL     1      10.002  -1.280   0.000  0.00  0.00    +0.000 A 
ATOM     40  C   UNL     1      10.718  -0.870   0.000  0.00  0.00    +0.000 A 
ENDBRANCH  12  35
TORSDOF 5
