REMARK  Name = 44258229
REMARK  5 active torsions:
REMARK  status: ('A' for Active; 'I' for Inactive)
REMARK    1  A    between atoms: O_2  and  C_16
REMARK    2  A    between atoms: O_2  and  C_18
REMARK    3  A    between atoms: O_7  and  C_20
REMARK    4  A    between atoms: C_15  and  C_17
REMARK    5  A    between atoms: C_21  and  C_24
REMARK                            x       y       z     vdW  Elec       q    Type
REMARK                         _______ _______ _______ _____ _____    ______ ____
ROOT
ATOM      1  C   UNL     1       6.414  -0.855   0.000  0.00  0.00    +0.000 A 
ATOM      2  C   UNL     1       5.700  -0.442   0.000  0.00  0.00    +0.000 A 
ATOM      3  C   UNL     1       7.129  -0.442   0.000  0.00  0.00    +0.000 A 
ATOM      4  C   UNL     1       5.700   0.383   0.000  0.00  0.00    +0.000 A 
ATOM      5  C   UNL     1       7.129   0.383   0.000  0.00  0.00    +0.000 A 
ATOM      6  C   UNL     1       6.414   0.795   0.000  0.00  0.00    +0.000 A 
ENDROOT
BRANCH   4  11
ATOM      7  O   UNL     1       4.985   1.621   0.000  0.00  0.00    +0.000 OA
ATOM      8  O   UNL     1       2.842   0.383   0.000  0.00  0.00    +0.000 OA
ATOM      9  O   UNL     1       2.096   1.618   0.000  0.00  0.00    +0.000 OA
ATOM     10  O   UNL     1       3.546   4.153   0.000  0.00  0.00    +0.000 OA
ATOM     11  C   UNL     1       4.985   0.795   0.000  0.00  0.00    +0.000 A 
ATOM     12  C   UNL     1       4.271   0.383   0.000  0.00  0.00    +0.000 A 
ATOM     13  C   UNL     1       4.271   2.033   0.000  0.00  0.00    +0.000 A 
ATOM     14  C   UNL     1       3.556   1.621   0.000  0.00  0.00    +0.000 A 
ATOM     15  C   UNL     1       3.556   0.795   0.000  0.00  0.00    +0.000 A 
ATOM     16  C   UNL     1       2.806   2.039   0.000  0.00  0.00    +0.000 A 
ATOM     17  C   UNL     1       4.284   2.892   0.000  0.00  0.00    +0.000 A 
ATOM     18  C   UNL     1       3.543   3.328   0.000  0.00  0.00    +0.000 A 
ATOM     19  C   UNL     1       2.799   2.898   0.000  0.00  0.00    +0.000 A 
ENDBRANCH   4  11
BRANCH   3  20
ATOM     20  O   UNL     1       7.843  -0.855   0.000  0.00  0.00    +0.000 OA
ATOM     21  C   UNL     1       8.558  -0.442   0.000  0.00  0.00    +0.000 C 
ENDBRANCH   3  20
BRANCH   1  22
ATOM     22  O   UNL     1       6.414  -1.679   0.000  0.00  0.00    +0.000 OA
BRANCH  22  31
ATOM     23  O   UNL     1       4.985  -1.679   0.000  0.00  0.00    +0.000 OA
ATOM     24  O   UNL     1       4.985  -4.154   0.000  0.00  0.00    +0.000 OA
ATOM     25  O   UNL     1       3.556  -3.329   0.000  0.00  0.00    +0.000 OA
ATOM     26  O   UNL     1       6.414  -3.329   0.000  0.00  0.00    +0.000 OA
ATOM     27  C   UNL     1       4.985  -3.329   0.000  0.00  0.00    +0.000 C 
ATOM     28  C   UNL     1       4.271  -2.917   0.000  0.00  0.00    +0.000 C 
ATOM     29  C   UNL     1       5.700  -2.917   0.000  0.00  0.00    +0.000 C 
ATOM     30  C   UNL     1       4.271  -2.092   0.000  0.00  0.00    +0.000 C 
ATOM     31  C   UNL     1       5.700  -2.092   0.000  0.00  0.00    +0.000 C 
BRANCH  30  33
ATOM     32  O   UNL     1       2.842  -2.092   0.000  0.00  0.00    +0.000 OA
ATOM     33  C   UNL     1       3.556  -1.679   0.000  0.00  0.00    +0.000 C 
ENDBRANCH  30  33
ENDBRANCH  22  31
ENDBRANCH   1  22
TORSDOF 5
