REMARK  Name = 131752191
REMARK  9 active torsions:
REMARK  status: ('A' for Active; 'I' for Inactive)
REMARK    1  A    between atoms: O_1  and  C_20
REMARK    2  A    between atoms: O_1  and  C_22
REMARK    3  A    between atoms: O_5  and  C_25
REMARK    4  A    between atoms: O_5  and  C_32
REMARK    5  A    between atoms: O_17  and  C_44
REMARK    6  A    between atoms: O_18  and  C_45
REMARK    7  A    between atoms: C_28  and  C_30
REMARK    8  A    between atoms: C_29  and  C_31
REMARK    9  A    between atoms: C_39  and  C_41
REMARK                            x       y       z     vdW  Elec       q    Type
REMARK                         _______ _______ _______ _____ _____    ______ ____
ROOT
ATOM      1  O   UNL     1       5.665  -0.515   0.000  0.00  0.00    +0.000 OA
ENDROOT
BRANCH   1   5
ATOM      2  O   UNL     1       7.114   2.011   0.000  0.00  0.00    +0.000 OA
ATOM      3  O   UNL     1       4.225   2.025   0.000  0.00  0.00    +0.000 OA
ATOM      4  O   UNL     1       4.975   3.257   0.000  0.00  0.00    +0.000 OA
ATOM      5  C   UNL     1       5.665   0.310   0.000  0.00  0.00    +0.000 A 
ATOM      6  C   UNL     1       6.408   0.742   0.000  0.00  0.00    +0.000 A 
ATOM      7  C   UNL     1       4.923   0.742   0.000  0.00  0.00    +0.000 A 
ATOM      8  C   UNL     1       6.398   1.602   0.000  0.00  0.00    +0.000 A 
ATOM      9  C   UNL     1       4.933   1.602   0.000  0.00  0.00    +0.000 A 
ATOM     10  C   UNL     1       5.685   2.017   0.000  0.00  0.00    +0.000 A 
ATOM     11  C   UNL     1       5.688   2.842   0.000  0.00  0.00    +0.000 A 
ATOM     12  C   UNL     1       7.117   2.836   0.000  0.00  0.00    +0.000 A 
ATOM     13  C   UNL     1       6.404   3.252   0.000  0.00  0.00    +0.000 A 
BRANCH  12  15
ATOM     14  O   UNL     1       9.981   4.475   0.000  0.00  0.00    +0.000 OA
ATOM     15  C   UNL     1       7.833   3.246   0.000  0.00  0.00    +0.000 A 
ATOM     16  C   UNL     1       8.546   2.831   0.000  0.00  0.00    +0.000 A 
ATOM     17  C   UNL     1       7.836   4.071   0.000  0.00  0.00    +0.000 A 
ATOM     18  C   UNL     1       8.552   4.481   0.000  0.00  0.00    +0.000 A 
ATOM     19  C   UNL     1       9.262   3.240   0.000  0.00  0.00    +0.000 A 
ATOM     20  C   UNL     1       9.265   4.066   0.000  0.00  0.00    +0.000 A 
BRANCH  18  21
ATOM     21  O   UNL     1       8.556   5.306   0.000  0.00  0.00    +0.000 OA
ATOM     22  C   UNL     1       7.843   5.721   0.000  0.00  0.00    +0.000 C 
ENDBRANCH  18  21
BRANCH  19  23
ATOM     23  O   UNL     1       9.975   2.825   0.000  0.00  0.00    +0.000 OA
ATOM     24  C   UNL     1      10.691   3.235   0.000  0.00  0.00    +0.000 C 
ENDBRANCH  19  23
ENDBRANCH  12  15
ENDBRANCH   1   5
BRANCH   1  31
ATOM     25  O   UNL     1       4.236  -0.515   0.000  0.00  0.00    +0.000 OA
ATOM     26  O   UNL     1       4.236  -2.990   0.000  0.00  0.00    +0.000 OA
ATOM     27  O   UNL     1       2.808  -2.165   0.000  0.00  0.00    +0.000 OA
ATOM     28  C   UNL     1       4.951  -1.753   0.000  0.00  0.00    +0.000 C 
ATOM     29  C   UNL     1       4.236  -2.165   0.000  0.00  0.00    +0.000 C 
ATOM     30  C   UNL     1       3.522  -1.753   0.000  0.00  0.00    +0.000 C 
ATOM     31  C   UNL     1       4.951  -0.928   0.000  0.00  0.00    +0.000 C 
ATOM     32  C   UNL     1       3.522  -0.928   0.000  0.00  0.00    +0.000 C 
BRANCH  32  35
ATOM     33  O   UNL     1       2.093  -0.928   0.000  0.00  0.00    +0.000 OA
ATOM     34  O   UNL     1       2.808   0.310   0.000  0.00  0.00    +0.000 OA
ATOM     35  C   UNL     1       2.808  -0.515   0.000  0.00  0.00    +0.000 C 
ENDBRANCH  32  35
BRANCH  28  36
ATOM     36  O   UNL     1       5.665  -2.165   0.000  0.00  0.00    +0.000 OA
BRANCH  36  41
ATOM     37  O   UNL     1       4.951  -3.403   0.000  0.00  0.00    +0.000 OA
ATOM     38  O   UNL     1       7.094  -2.990   0.000  0.00  0.00    +0.000 OA
ATOM     39  O   UNL     1       7.094  -4.640   0.000  0.00  0.00    +0.000 OA
ATOM     40  O   UNL     1       5.665  -5.465   0.000  0.00  0.00    +0.000 OA
ATOM     41  C   UNL     1       5.665  -2.990   0.000  0.00  0.00    +0.000 C 
ATOM     42  C   UNL     1       6.380  -3.403   0.000  0.00  0.00    +0.000 C 
ATOM     43  C   UNL     1       6.380  -4.228   0.000  0.00  0.00    +0.000 C 
ATOM     44  C   UNL     1       5.665  -4.640   0.000  0.00  0.00    +0.000 C 
ATOM     45  C   UNL     1       4.951  -4.228   0.000  0.00  0.00    +0.000 C 
BRANCH  45  48
ATOM     46  O   UNL     1       4.236  -5.465   0.000  0.00  0.00    +0.000 OA
ATOM     47  O   UNL     1       3.522  -4.228   0.000  0.00  0.00    +0.000 OA
ATOM     48  C   UNL     1       4.236  -4.640   0.000  0.00  0.00    +0.000 C 
ENDBRANCH  45  48
ENDBRANCH  36  41
ENDBRANCH  28  36
ENDBRANCH   1  31
TORSDOF 9
