REMARK  Name = 44256694
REMARK  3 active torsions:
REMARK  status: ('A' for Active; 'I' for Inactive)
REMARK    1  A    between atoms: O_2  and  C_13
REMARK    2  A    between atoms: O_2  and  C_15
REMARK    3  A    between atoms: C_16  and  C_20
REMARK                            x       y       z     vdW  Elec       q    Type
REMARK                         _______ _______ _______ _____ _____    ______ ____
ROOT
ATOM      1  O   UNL     1       5.006  -1.728   0.000  0.00  0.00    +0.000 OA
ATOM      2  O   UNL     1       3.564   0.775   0.000  0.00  0.00    +0.000 OA
ATOM      3  O   UNL     1       2.094  -1.748   0.000  0.00  0.00    +0.000 OA
ATOM      4  C   UNL     1       5.721  -0.491   0.000  0.00  0.00    +0.000 A 
ATOM      5  C   UNL     1       5.721  -1.316   0.000  0.00  0.00    +0.000 A 
ATOM      6  C   UNL     1       5.006  -0.078   0.000  0.00  0.00    +0.000 A 
ATOM      7  C   UNL     1       4.292  -0.491   0.000  0.00  0.00    +0.000 A 
ATOM      8  C   UNL     1       4.292  -1.316   0.000  0.00  0.00    +0.000 A 
ATOM      9  C   UNL     1       3.554  -0.050   0.000  0.00  0.00    +0.000 A 
ATOM     10  C   UNL     1       3.554  -1.757   0.000  0.00  0.00    +0.000 A 
ATOM     11  C   UNL     1       2.807  -0.474   0.000  0.00  0.00    +0.000 A 
ATOM     12  C   UNL     1       2.807  -1.333   0.000  0.00  0.00    +0.000 A 
ENDROOT
BRANCH   5  14
ATOM     13  O   UNL     1       8.579  -2.966   0.000  0.00  0.00    +0.000 OA
ATOM     14  C   UNL     1       6.435  -1.728   0.000  0.00  0.00    +0.000 A 
ATOM     15  C   UNL     1       7.150  -1.316   0.000  0.00  0.00    +0.000 A 
ATOM     16  C   UNL     1       6.435  -2.553   0.000  0.00  0.00    +0.000 A 
ATOM     17  C   UNL     1       7.864  -1.728   0.000  0.00  0.00    +0.000 A 
ATOM     18  C   UNL     1       7.150  -2.966   0.000  0.00  0.00    +0.000 A 
ATOM     19  C   UNL     1       7.864  -2.553   0.000  0.00  0.00    +0.000 A 
ENDBRANCH   5  14
BRANCH   4  20
ATOM     20  O   UNL     1       6.435  -0.078   0.000  0.00  0.00    +0.000 OA
BRANCH  20  28
ATOM     21  O   UNL     1       7.150   1.159   0.000  0.00  0.00    +0.000 OA
ATOM     22  O   UNL     1       5.006   2.397   0.000  0.00  0.00    +0.000 OA
ATOM     23  O   UNL     1       5.006   0.747   0.000  0.00  0.00    +0.000 OA
ATOM     24  O   UNL     1       6.435   3.222   0.000  0.00  0.00    +0.000 OA
ATOM     25  C   UNL     1       5.721   1.984   0.000  0.00  0.00    +0.000 C 
ATOM     26  C   UNL     1       5.721   1.159   0.000  0.00  0.00    +0.000 C 
ATOM     27  C   UNL     1       6.435   2.397   0.000  0.00  0.00    +0.000 C 
ATOM     28  C   UNL     1       6.435   0.747   0.000  0.00  0.00    +0.000 C 
ATOM     29  C   UNL     1       7.150   1.984   0.000  0.00  0.00    +0.000 C 
ENDBRANCH  20  28
ENDBRANCH   4  20
TORSDOF 3
