REMARK  Name = 44257828
REMARK  8 active torsions:
REMARK  status: ('A' for Active; 'I' for Inactive)
REMARK    1  A    between atoms: O_2  and  C_18
REMARK    2  A    between atoms: O_2  and  C_20
REMARK    3  A    between atoms: O_6  and  C_19
REMARK    4  A    between atoms: O_6  and  C_24
REMARK    5  A    between atoms: C_16  and  C_19
REMARK    6  A    between atoms: C_24  and  C_28
REMARK    7  A    between atoms: C_28  and  C_32
REMARK    8  A    between atoms: C_30  and  C_31
REMARK                            x       y       z     vdW  Elec       q    Type
REMARK                         _______ _______ _______ _____ _____    ______ ____
ROOT
ATOM      1  O   UNL     1       9.995   2.002   0.000  0.00  0.00    +0.000 OA
ATOM      2  O   UNL     1       7.082   2.056   0.000  0.00  0.00    +0.000 OA
ATOM      3  O   UNL     1       9.966  -0.472   0.000  0.00  0.00    +0.000 OA
ATOM      4  C   UNL     1       8.523   0.341   0.000  0.00  0.00    +0.000 A 
ATOM      5  C   UNL     1       9.266   0.773   0.000  0.00  0.00    +0.000 A 
ATOM      6  C   UNL     1       7.781   0.773   0.000  0.00  0.00    +0.000 A 
ATOM      7  C   UNL     1       9.275   1.598   0.000  0.00  0.00    +0.000 A 
ATOM      8  C   UNL     1       9.975   0.352   0.000  0.00  0.00    +0.000 A 
ATOM      9  C   UNL     1       7.791   1.633   0.000  0.00  0.00    +0.000 A 
ATOM     10  C   UNL     1       8.543   2.048   0.000  0.00  0.00    +0.000 A 
ATOM     11  C   UNL     1      10.695   0.757   0.000  0.00  0.00    +0.000 A 
ATOM     12  C   UNL     1      10.704   1.582   0.000  0.00  0.00    +0.000 A 
ENDROOT
BRANCH  12  14
ATOM     13  O   UNL     1      13.581   3.199   0.000  0.00  0.00    +0.000 OA
ATOM     14  C   UNL     1      11.423   1.986   0.000  0.00  0.00    +0.000 A 
ATOM     15  C   UNL     1      11.433   2.811   0.000  0.00  0.00    +0.000 A 
ATOM     16  C   UNL     1      12.133   1.565   0.000  0.00  0.00    +0.000 A 
ATOM     17  C   UNL     1      12.152   3.215   0.000  0.00  0.00    +0.000 A 
ATOM     18  C   UNL     1      12.852   1.969   0.000  0.00  0.00    +0.000 A 
ATOM     19  C   UNL     1      12.862   2.794   0.000  0.00  0.00    +0.000 A 
ENDBRANCH  12  14
BRANCH   4  20
ATOM     20  O   UNL     1       8.523  -0.484   0.000  0.00  0.00    +0.000 OA
BRANCH  20  29
ATOM     21  O   UNL     1       7.094  -0.484   0.000  0.00  0.00    +0.000 OA
ATOM     22  O   UNL     1       5.665  -2.134   0.000  0.00  0.00    +0.000 OA
ATOM     23  O   UNL     1       7.094  -2.959   0.000  0.00  0.00    +0.000 OA
ATOM     24  O   UNL     1       8.523  -2.134   0.000  0.00  0.00    +0.000 OA
ATOM     25  C   UNL     1       6.380  -1.722   0.000  0.00  0.00    +0.000 C 
ATOM     26  C   UNL     1       7.094  -2.134   0.000  0.00  0.00    +0.000 C 
ATOM     27  C   UNL     1       6.380  -0.897   0.000  0.00  0.00    +0.000 C 
ATOM     28  C   UNL     1       7.809  -1.722   0.000  0.00  0.00    +0.000 C 
ATOM     29  C   UNL     1       7.809  -0.897   0.000  0.00  0.00    +0.000 C 
BRANCH  27  30
ATOM     30  C   UNL     1       5.665  -0.484   0.000  0.00  0.00    +0.000 C 
BRANCH  30  31
ATOM     31  O   UNL     1       4.951  -0.897   0.000  0.00  0.00    +0.000 OA
BRANCH  31  33
ATOM     32  O   UNL     1       4.236   0.341   0.000  0.00  0.00    +0.000 OA
ATOM     33  C   UNL     1       4.236  -0.484   0.000  0.00  0.00    +0.000 C 
BRANCH  33  34
ATOM     34  C   UNL     1       3.522  -0.897   0.000  0.00  0.00    +0.000 C 
BRANCH  34  37
ATOM     35  O   UNL     1       2.093  -0.897   0.000  0.00  0.00    +0.000 OA
ATOM     36  O   UNL     1       2.808   0.341   0.000  0.00  0.00    +0.000 OA
ATOM     37  C   UNL     1       2.808  -0.484   0.000  0.00  0.00    +0.000 C 
ENDBRANCH  34  37
ENDBRANCH  33  34
ENDBRANCH  31  33
ENDBRANCH  30  31
ENDBRANCH  27  30
ENDBRANCH  20  29
ENDBRANCH   4  20
TORSDOF 8
