REMARK  Name = 12137511
REMARK  5 active torsions:
REMARK  status: ('A' for Active; 'I' for Inactive)
REMARK    1  A    between atoms: O_2  and  C_15
REMARK    2  A    between atoms: O_2  and  C_17
REMARK    3  A    between atoms: O_8  and  C_29
REMARK    4  A    between atoms: O_9  and  C_30
REMARK    5  A    between atoms: C_18  and  C_21
REMARK                            x       y       z     vdW  Elec       q    Type
REMARK                         _______ _______ _______ _____ _____    ______ ____
ROOT
ATOM      1  O   UNL     1       5.006  -1.365   0.000  0.00  0.00    +0.000 OA
ATOM      2  O   UNL     1       3.564   1.138   0.000  0.00  0.00    +0.000 OA
ATOM      3  O   UNL     1       2.094  -1.385   0.000  0.00  0.00    +0.000 OA
ATOM      4  C   UNL     1       5.721  -0.128   0.000  0.00  0.00    +0.000 A 
ATOM      5  C   UNL     1       5.721  -0.953   0.000  0.00  0.00    +0.000 A 
ATOM      6  C   UNL     1       5.006   0.285   0.000  0.00  0.00    +0.000 A 
ATOM      7  C   UNL     1       4.292  -0.128   0.000  0.00  0.00    +0.000 A 
ATOM      8  C   UNL     1       4.292  -0.953   0.000  0.00  0.00    +0.000 A 
ATOM      9  C   UNL     1       3.554   0.313   0.000  0.00  0.00    +0.000 A 
ATOM     10  C   UNL     1       3.554  -1.394   0.000  0.00  0.00    +0.000 A 
ATOM     11  C   UNL     1       2.807  -0.111   0.000  0.00  0.00    +0.000 A 
ATOM     12  C   UNL     1       2.807  -0.970   0.000  0.00  0.00    +0.000 A 
ENDROOT
BRANCH   5  14
ATOM     13  O   UNL     1       8.579  -2.603   0.000  0.00  0.00    +0.000 OA
ATOM     14  C   UNL     1       6.435  -1.365   0.000  0.00  0.00    +0.000 A 
ATOM     15  C   UNL     1       6.435  -2.190   0.000  0.00  0.00    +0.000 A 
ATOM     16  C   UNL     1       7.150  -0.953   0.000  0.00  0.00    +0.000 A 
ATOM     17  C   UNL     1       7.864  -1.365   0.000  0.00  0.00    +0.000 A 
ATOM     18  C   UNL     1       7.150  -2.603   0.000  0.00  0.00    +0.000 A 
ATOM     19  C   UNL     1       7.864  -2.190   0.000  0.00  0.00    +0.000 A 
BRANCH  17  20
ATOM     20  O   UNL     1       8.579  -0.953   0.000  0.00  0.00    +0.000 OA
ATOM     21  C   UNL     1       9.293  -1.365   0.000  0.00  0.00    +0.000 C 
ENDBRANCH  17  20
BRANCH  18  22
ATOM     22  O   UNL     1       7.150  -3.428   0.000  0.00  0.00    +0.000 OA
ATOM     23  C   UNL     1       6.435  -3.840   0.000  0.00  0.00    +0.000 C 
ENDBRANCH  18  22
ENDBRANCH   5  14
BRANCH   4  24
ATOM     24  O   UNL     1       6.435   0.285   0.000  0.00  0.00    +0.000 OA
BRANCH  24  32
ATOM     25  O   UNL     1       7.150   1.522   0.000  0.00  0.00    +0.000 OA
ATOM     26  O   UNL     1       5.006   2.760   0.000  0.00  0.00    +0.000 OA
ATOM     27  O   UNL     1       5.006   1.110   0.000  0.00  0.00    +0.000 OA
ATOM     28  O   UNL     1       6.435   3.585   0.000  0.00  0.00    +0.000 OA
ATOM     29  C   UNL     1       5.721   2.347   0.000  0.00  0.00    +0.000 C 
ATOM     30  C   UNL     1       5.721   1.522   0.000  0.00  0.00    +0.000 C 
ATOM     31  C   UNL     1       6.435   2.760   0.000  0.00  0.00    +0.000 C 
ATOM     32  C   UNL     1       6.435   1.110   0.000  0.00  0.00    +0.000 C 
ATOM     33  C   UNL     1       7.150   2.347   0.000  0.00  0.00    +0.000 C 
ENDBRANCH  24  32
ENDBRANCH   4  24
TORSDOF 5
