REMARK  Name = 56776173
REMARK  6 active torsions:
REMARK  status: ('A' for Active; 'I' for Inactive)
REMARK    1  A    between atoms: O_1  and  C_16
REMARK    2  A    between atoms: O_1  and  C_21
REMARK    3  A    between atoms: C_18  and  C_26
REMARK    4  A    between atoms: C_20  and  C_27
REMARK    5  A    between atoms: C_25  and  C_28
REMARK    6  A    between atoms: C_35  and  C_37
REMARK                            x       y       z     vdW  Elec       q    Type
REMARK                         _______ _______ _______ _____ _____    ______ ____
ROOT
ATOM      1  O   UNL     1       6.380   0.412   0.000  0.00  0.00    +0.000 OA
ATOM      2  O   UNL     1       4.236  -0.825   0.000  0.00  0.00    +0.000 OA
ATOM      3  O   UNL     1       4.236   0.825   0.000  0.00  0.00    +0.000 OA
ATOM      4  C   UNL     1       5.665  -0.825   0.000  0.00  0.00    +0.000 C 
ATOM      5  C   UNL     1       4.951  -0.412   0.000  0.00  0.00    +0.000 C 
ATOM      6  C   UNL     1       6.380  -0.412   0.000  0.00  0.00    +0.000 C 
ATOM      7  C   UNL     1       4.951   0.412   0.000  0.00  0.00    +0.000 C 
ATOM      8  C   UNL     1       5.665   0.825   0.000  0.00  0.00    +0.000 C 
ENDROOT
BRANCH   8  13
ATOM      9  O   UNL     1       7.117   1.621   0.000  0.00  0.00    +0.000 OA
ATOM     10  O   UNL     1       4.236   1.650   0.000  0.00  0.00    +0.000 OA
ATOM     11  O   UNL     1       5.665   4.125   0.000  0.00  0.00    +0.000 OA
ATOM     12  O   UNL     1       7.108   4.154   0.000  0.00  0.00    +0.000 OA
ATOM     13  C   UNL     1       5.665   1.650   0.000  0.00  0.00    +0.000 A 
ATOM     14  C   UNL     1       6.380   2.062   0.000  0.00  0.00    +0.000 A 
ATOM     15  C   UNL     1       4.951   2.062   0.000  0.00  0.00    +0.000 A 
ATOM     16  C   UNL     1       6.380   2.888   0.000  0.00  0.00    +0.000 A 
ATOM     17  C   UNL     1       4.951   2.888   0.000  0.00  0.00    +0.000 A 
ATOM     18  C   UNL     1       5.665   3.300   0.000  0.00  0.00    +0.000 A 
ATOM     19  C   UNL     1       7.117   3.329   0.000  0.00  0.00    +0.000 A 
ATOM     20  C   UNL     1       7.865   2.045   0.000  0.00  0.00    +0.000 A 
ATOM     21  C   UNL     1       7.865   2.905   0.000  0.00  0.00    +0.000 A 
BRANCH  20  23
ATOM     22  O   UNL     1      10.716   0.384   0.000  0.00  0.00    +0.000 OA
ATOM     23  C   UNL     1       8.578   1.630   0.000  0.00  0.00    +0.000 A 
ATOM     24  C   UNL     1       9.294   2.040   0.000  0.00  0.00    +0.000 A 
ATOM     25  C   UNL     1       8.575   0.805   0.000  0.00  0.00    +0.000 A 
ATOM     26  C   UNL     1      10.007   1.625   0.000  0.00  0.00    +0.000 A 
ATOM     27  C   UNL     1       9.287   0.390   0.000  0.00  0.00    +0.000 A 
ATOM     28  C   UNL     1      10.004   0.800   0.000  0.00  0.00    +0.000 A 
ENDBRANCH  20  23
ENDBRANCH   8  13
BRANCH   6  30
ATOM     29  O   UNL     1       7.094  -1.650   0.000  0.00  0.00    +0.000 OA
ATOM     30  C   UNL     1       7.094  -0.825   0.000  0.00  0.00    +0.000 C 
ENDBRANCH   6  30
BRANCH   4  31
ATOM     31  O   UNL     1       5.665  -1.650   0.000  0.00  0.00    +0.000 OA
BRANCH  31  36
ATOM     32  O   UNL     1       4.236  -1.650   0.000  0.00  0.00    +0.000 OA
ATOM     33  O   UNL     1       5.665  -3.300   0.000  0.00  0.00    +0.000 OA
ATOM     34  O   UNL     1       4.236  -4.125   0.000  0.00  0.00    +0.000 OA
ATOM     35  O   UNL     1       2.808  -3.300   0.000  0.00  0.00    +0.000 OA
ATOM     36  C   UNL     1       4.951  -2.062   0.000  0.00  0.00    +0.000 C 
ATOM     37  C   UNL     1       4.951  -2.888   0.000  0.00  0.00    +0.000 C 
ATOM     38  C   UNL     1       4.236  -3.300   0.000  0.00  0.00    +0.000 C 
ATOM     39  C   UNL     1       3.522  -2.888   0.000  0.00  0.00    +0.000 C 
ATOM     40  C   UNL     1       3.522  -2.062   0.000  0.00  0.00    +0.000 C 
BRANCH  40  42
ATOM     41  O   UNL     1       2.093  -2.062   0.000  0.00  0.00    +0.000 OA
ATOM     42  C   UNL     1       2.808  -1.650   0.000  0.00  0.00    +0.000 C 
ENDBRANCH  40  42
ENDBRANCH  31  36
ENDBRANCH   4  31
TORSDOF 6
