REMARK  Name = 5353588
REMARK  7 active torsions:
REMARK  status: ('A' for Active; 'I' for Inactive)
REMARK    1  A    between atoms: O_3  and  C_21
REMARK    2  A    between atoms: O_3  and  C_26
REMARK    3  A    between atoms: O_6  and  C_24
REMARK    4  A    between atoms: O_6  and  C_28
REMARK    5  A    between atoms: O_14  and  C_42
REMARK    6  A    between atoms: C_16  and  C_26
REMARK    7  A    between atoms: C_35  and  C_37
REMARK                            x       y       z     vdW  Elec       q    Type
REMARK                         _______ _______ _______ _____ _____    ______ ____
ROOT
ATOM      1  O   UNL     1       6.380  -0.309   0.000  0.00  0.00    +0.000 OA
ENDROOT
BRANCH   1   5
ATOM      2  O   UNL     1       4.916   2.209   0.000  0.00  0.00    +0.000 OA
ATOM      3  O   UNL     1       3.460  -0.286   0.000  0.00  0.00    +0.000 OA
ATOM      4  O   UNL     1       2.768   0.980   0.000  0.00  0.00    +0.000 OA
ATOM      5  C   UNL     1       5.665   0.104   0.000  0.00  0.00    +0.000 A 
ATOM      6  C   UNL     1       5.662   0.963   0.000  0.00  0.00    +0.000 A 
ATOM      7  C   UNL     1       4.920  -0.323   0.000  0.00  0.00    +0.000 A 
ATOM      8  C   UNL     1       4.913   1.384   0.000  0.00  0.00    +0.000 A 
ATOM      9  C   UNL     1       4.180   0.115   0.000  0.00  0.00    +0.000 A 
ATOM     10  C   UNL     1       4.197   0.974   0.000  0.00  0.00    +0.000 A 
ATOM     11  C   UNL     1       3.484   1.390   0.000  0.00  0.00    +0.000 A 
ATOM     12  C   UNL     1       4.203   2.624   0.000  0.00  0.00    +0.000 A 
ATOM     13  C   UNL     1       3.487   2.215   0.000  0.00  0.00    +0.000 A 
BRANCH  12  15
ATOM     14  O   UNL     1       5.642   5.094   0.000  0.00  0.00    +0.000 OA
ATOM     15  C   UNL     1       4.206   3.449   0.000  0.00  0.00    +0.000 A 
ATOM     16  C   UNL     1       4.922   3.859   0.000  0.00  0.00    +0.000 A 
ATOM     17  C   UNL     1       3.494   3.865   0.000  0.00  0.00    +0.000 A 
ATOM     18  C   UNL     1       4.926   4.684   0.000  0.00  0.00    +0.000 A 
ATOM     19  C   UNL     1       3.497   4.689   0.000  0.00  0.00    +0.000 A 
ATOM     20  C   UNL     1       4.213   5.099   0.000  0.00  0.00    +0.000 A 
BRANCH  20  21
ATOM     21  O   UNL     1       4.216   5.924   0.000  0.00  0.00    +0.000 OA
ATOM     22  C   UNL     1       3.503   6.340   0.000  0.00  0.00    +0.000 C 
ENDBRANCH  20  21
ENDBRANCH  12  15
ENDBRANCH   1   5
BRANCH   1  31
ATOM     23  O   UNL     1       5.665  -1.546   0.000  0.00  0.00    +0.000 OA
ATOM     24  O   UNL     1       6.380  -3.609   0.000  0.00  0.00    +0.000 OA
ATOM     25  O   UNL     1       7.809  -2.784   0.000  0.00  0.00    +0.000 OA
ATOM     26  O   UNL     1       7.809  -1.134   0.000  0.00  0.00    +0.000 OA
ATOM     27  C   UNL     1       5.665  -2.371   0.000  0.00  0.00    +0.000 C 
ATOM     28  C   UNL     1       6.380  -2.784   0.000  0.00  0.00    +0.000 C 
ATOM     29  C   UNL     1       7.094  -2.371   0.000  0.00  0.00    +0.000 C 
ATOM     30  C   UNL     1       7.094  -1.546   0.000  0.00  0.00    +0.000 C 
ATOM     31  C   UNL     1       6.380  -1.134   0.000  0.00  0.00    +0.000 C 
BRANCH  27  32
ATOM     32  C   UNL     1       4.951  -2.784   0.000  0.00  0.00    +0.000 C 
BRANCH  32  33
ATOM     33  O   UNL     1       4.951  -3.609   0.000  0.00  0.00    +0.000 OA
BRANCH  33  39
ATOM     34  O   UNL     1       3.522  -3.609   0.000  0.00  0.00    +0.000 OA
ATOM     35  O   UNL     1       4.951  -5.259   0.000  0.00  0.00    +0.000 OA
ATOM     36  O   UNL     1       3.522  -6.084   0.000  0.00  0.00    +0.000 OA
ATOM     37  O   UNL     1       2.093  -5.259   0.000  0.00  0.00    +0.000 OA
ATOM     38  C   UNL     1       4.236  -4.846   0.000  0.00  0.00    +0.000 C 
ATOM     39  C   UNL     1       4.236  -4.021   0.000  0.00  0.00    +0.000 C 
ATOM     40  C   UNL     1       3.522  -5.259   0.000  0.00  0.00    +0.000 C 
ATOM     41  C   UNL     1       2.808  -4.846   0.000  0.00  0.00    +0.000 C 
ATOM     42  C   UNL     1       2.808  -4.021   0.000  0.00  0.00    +0.000 C 
ATOM     43  C   UNL     1       2.093  -3.609   0.000  0.00  0.00    +0.000 C 
ENDBRANCH  33  39
ENDBRANCH  32  33
ENDBRANCH  27  32
ENDBRANCH   1  31
TORSDOF 7
