REMARK  Name = 21676298
REMARK  9 active torsions:
REMARK  status: ('A' for Active; 'I' for Inactive)
REMARK    1  A    between atoms: O_2  and  C_26
REMARK    2  A    between atoms: O_2  and  C_30
REMARK    3  A    between atoms: O_5  and  C_28
REMARK    4  A    between atoms: O_5  and  C_39
REMARK    5  A    between atoms: O_12  and  C_36
REMARK    6  A    between atoms: O_12  and  C_40
REMARK    7  A    between atoms: C_21  and  C_30
REMARK    8  A    between atoms: C_35  and  C_38
REMARK    9  A    between atoms: C_42  and  C_48
REMARK                            x       y       z     vdW  Elec       q    Type
REMARK                         _______ _______ _______ _____ _____    ______ ____
ROOT
ATOM      1  O   UNL     1       7.869   3.222   0.000  0.00  0.00    +0.000 OA
ATOM      2  O   UNL     1       7.869   0.747   0.000  0.00  0.00    +0.000 OA
ATOM      3  O   UNL     1       6.426   0.718   0.000  0.00  0.00    +0.000 OA
ATOM      4  C   UNL     1       8.583   1.984   0.000  0.00  0.00    +0.000 A 
ATOM      5  C   UNL     1       5.669   2.826   0.000  0.00  0.00    +0.000 A 
ATOM      6  C   UNL     1       7.869   1.572   0.000  0.00  0.00    +0.000 A 
ATOM      7  C   UNL     1       8.583   2.809   0.000  0.00  0.00    +0.000 A 
ATOM      8  C   UNL     1       7.154   1.984   0.000  0.00  0.00    +0.000 A 
ATOM      9  C   UNL     1       7.154   2.809   0.000  0.00  0.00    +0.000 A 
ATOM     10  C   UNL     1       6.417   3.250   0.000  0.00  0.00    +0.000 A 
ATOM     11  C   UNL     1       5.669   1.967   0.000  0.00  0.00    +0.000 A 
ATOM     12  C   UNL     1       6.417   1.543   0.000  0.00  0.00    +0.000 A 
ENDROOT
BRANCH   7  14
ATOM     13  O   UNL     1      11.441   4.459   0.000  0.00  0.00    +0.000 OA
ATOM     14  C   UNL     1       9.297   3.222   0.000  0.00  0.00    +0.000 A 
ATOM     15  C   UNL     1       9.297   4.047   0.000  0.00  0.00    +0.000 A 
ATOM     16  C   UNL     1      10.012   2.809   0.000  0.00  0.00    +0.000 A 
ATOM     17  C   UNL     1      10.012   4.459   0.000  0.00  0.00    +0.000 A 
ATOM     18  C   UNL     1      10.726   3.222   0.000  0.00  0.00    +0.000 A 
ATOM     19  C   UNL     1      10.726   4.047   0.000  0.00  0.00    +0.000 A 
ENDBRANCH   7  14
BRANCH   4  20
ATOM     20  O   UNL     1       9.297   1.572   0.000  0.00  0.00    +0.000 OA
BRANCH  20  29
ATOM     21  O   UNL     1       8.583   0.334   0.000  0.00  0.00    +0.000 OA
ATOM     22  O   UNL     1       9.297  -1.728   0.000  0.00  0.00    +0.000 OA
ATOM     23  O   UNL     1      10.726  -0.903   0.000  0.00  0.00    +0.000 OA
ATOM     24  O   UNL     1      10.726   0.747   0.000  0.00  0.00    +0.000 OA
ATOM     25  C   UNL     1       8.583  -0.491   0.000  0.00  0.00    +0.000 C 
ATOM     26  C   UNL     1       9.297  -0.903   0.000  0.00  0.00    +0.000 C 
ATOM     27  C   UNL     1      10.012  -0.491   0.000  0.00  0.00    +0.000 C 
ATOM     28  C   UNL     1      10.012   0.334   0.000  0.00  0.00    +0.000 C 
ATOM     29  C   UNL     1       9.297   0.747   0.000  0.00  0.00    +0.000 C 
BRANCH  25  30
ATOM     30  C   UNL     1       7.869  -0.903   0.000  0.00  0.00    +0.000 C 
BRANCH  30  31
ATOM     31  O   UNL     1       7.869  -1.728   0.000  0.00  0.00    +0.000 OA
BRANCH  31  37
ATOM     32  O   UNL     1       6.440  -1.728   0.000  0.00  0.00    +0.000 OA
ATOM     33  O   UNL     1       7.869  -3.378   0.000  0.00  0.00    +0.000 OA
ATOM     34  O   UNL     1       6.440  -4.203   0.000  0.00  0.00    +0.000 OA
ATOM     35  O   UNL     1       5.011  -3.378   0.000  0.00  0.00    +0.000 OA
ATOM     36  C   UNL     1       7.154  -2.966   0.000  0.00  0.00    +0.000 C 
ATOM     37  C   UNL     1       7.154  -2.141   0.000  0.00  0.00    +0.000 C 
ATOM     38  C   UNL     1       6.440  -3.378   0.000  0.00  0.00    +0.000 C 
ATOM     39  C   UNL     1       5.725  -2.966   0.000  0.00  0.00    +0.000 C 
ATOM     40  C   UNL     1       5.725  -2.141   0.000  0.00  0.00    +0.000 C 
ATOM     41  C   UNL     1       5.011  -1.728   0.000  0.00  0.00    +0.000 C 
ENDBRANCH  31  37
ENDBRANCH  30  31
ENDBRANCH  25  30
ENDBRANCH  20  29
ENDBRANCH   4  20
BRANCH   5  42
ATOM     42  O   UNL     1       4.956   3.242   0.000  0.00  0.00    +0.000 OA
BRANCH  42  51
ATOM     43  O   UNL     1       3.527   3.247   0.000  0.00  0.00    +0.000 OA
ATOM     44  O   UNL     1       3.518   0.772   0.000  0.00  0.00    +0.000 OA
ATOM     45  O   UNL     1       2.092   1.603   0.000  0.00  0.00    +0.000 OA
ATOM     46  O   UNL     1       4.950   1.592   0.000  0.00  0.00    +0.000 OA
ATOM     47  C   UNL     1       3.521   1.597   0.000  0.00  0.00    +0.000 C 
ATOM     48  C   UNL     1       2.808   2.012   0.000  0.00  0.00    +0.000 C 
ATOM     49  C   UNL     1       4.237   2.007   0.000  0.00  0.00    +0.000 C 
ATOM     50  C   UNL     1       2.811   2.837   0.000  0.00  0.00    +0.000 C 
ATOM     51  C   UNL     1       4.240   2.832   0.000  0.00  0.00    +0.000 C 
BRANCH  50  53
ATOM     52  O   UNL     1       2.102   4.078   0.000  0.00  0.00    +0.000 OA
ATOM     53  C   UNL     1       2.098   3.253   0.000  0.00  0.00    +0.000 C 
ENDBRANCH  50  53
ENDBRANCH  42  51
ENDBRANCH   5  42
TORSDOF 9
