REMARK  Name = 5322009
REMARK  8 active torsions:
REMARK  status: ('A' for Active; 'I' for Inactive)
REMARK    1  A    between atoms: O_2  and  C_12
REMARK    2  A    between atoms: O_2  and  C_25
REMARK    3  A    between atoms: O_3  and  C_15
REMARK    4  A    between atoms: O_4  and  C_17
REMARK    5  A    between atoms: O_4  and  C_27
REMARK    6  A    between atoms: O_6  and  C_24
REMARK    7  A    between atoms: O_6  and  C_30
REMARK    8  A    between atoms: C_13  and  C_19
REMARK                            x       y       z     vdW  Elec       q    Type
REMARK                         _______ _______ _______ _____ _____    ______ ____
ROOT
ATOM      1  O   UNL     1       5.245  -1.249   0.000  0.00  0.00    +0.000 OA
ATOM      2  O   UNL     1       5.236   1.283   0.000  0.00  0.00    +0.000 OA
ATOM      3  C   UNL     1       4.508   0.017   0.000  0.00  0.00    +0.000 A 
ATOM      4  C   UNL     1       4.508  -0.808   0.000  0.00  0.00    +0.000 A 
ATOM      5  C   UNL     1       3.793   0.429   0.000  0.00  0.00    +0.000 A 
ATOM      6  C   UNL     1       5.993  -0.825   0.000  0.00  0.00    +0.000 A 
ATOM      7  C   UNL     1       5.245   0.458   0.000  0.00  0.00    +0.000 A 
ATOM      8  C   UNL     1       3.079   0.017   0.000  0.00  0.00    +0.000 A 
ATOM      9  C   UNL     1       3.793  -1.221   0.000  0.00  0.00    +0.000 A 
ATOM     10  C   UNL     1       3.079  -0.808   0.000  0.00  0.00    +0.000 A 
ATOM     11  C   UNL     1       5.993   0.034   0.000  0.00  0.00    +0.000 A 
ENDROOT
BRANCH   6  12
ATOM     12  C   UNL     1       6.706  -1.241   0.000  0.00  0.00    +0.000 A 
ATOM     13  C   UNL     1       6.703  -2.066   0.000  0.00  0.00    +0.000 A 
ATOM     14  C   UNL     1       7.422  -0.831   0.000  0.00  0.00    +0.000 A 
ATOM     15  C   UNL     1       7.415  -2.481   0.000  0.00  0.00    +0.000 A 
ATOM     16  C   UNL     1       8.135  -1.246   0.000  0.00  0.00    +0.000 A 
ATOM     17  C   UNL     1       8.132  -2.071   0.000  0.00  0.00    +0.000 A 
BRANCH  17  18
ATOM     18  O   UNL     1       8.844  -2.486   0.000  0.00  0.00    +0.000 OA
BRANCH  18  20
ATOM     19  O   UNL     1       9.564  -1.252   0.000  0.00  0.00    +0.000 OA
ATOM     20  C   UNL     1       9.560  -2.077   0.000  0.00  0.00    +0.000 C 
ATOM     21  C   UNL     1      10.273  -2.492   0.000  0.00  0.00    +0.000 C 
ENDBRANCH  18  20
ENDBRANCH  17  18
ENDBRANCH   6  12
BRANCH   8  22
ATOM     22  O   UNL     1       2.364   0.429   0.000  0.00  0.00    +0.000 OA
ATOM     23  C   UNL     1       1.650   0.017   0.000  0.00  0.00    +0.000 C 
ENDBRANCH   8  22
BRANCH   5  24
ATOM     24  O   UNL     1       3.793   1.254   0.000  0.00  0.00    +0.000 OA
BRANCH  24  26
ATOM     25  O   UNL     1       2.364   1.254   0.000  0.00  0.00    +0.000 OA
ATOM     26  C   UNL     1       3.079   1.667   0.000  0.00  0.00    +0.000 C 
ATOM     27  C   UNL     1       3.079   2.492   0.000  0.00  0.00    +0.000 C 
ENDBRANCH  24  26
ENDBRANCH   5  24
BRANCH  10  28
ATOM     28  O   UNL     1       2.364  -1.221   0.000  0.00  0.00    +0.000 OA
BRANCH  28  30
ATOM     29  O   UNL     1       3.079  -2.458   0.000  0.00  0.00    +0.000 OA
ATOM     30  C   UNL     1       2.364  -2.046   0.000  0.00  0.00    +0.000 C 
ATOM     31  C   UNL     1       1.650  -2.458   0.000  0.00  0.00    +0.000 C 
ENDBRANCH  28  30
ENDBRANCH  10  28
TORSDOF 8
