REMARK  Name = 14630617
REMARK  7 active torsions:
REMARK  status: ('A' for Active; 'I' for Inactive)
REMARK    1  A    between atoms: O_1  and  C_19
REMARK    2  A    between atoms: O_1  and  C_22
REMARK    3  A    between atoms: O_5  and  C_27
REMARK    4  A    between atoms: O_5  and  C_36
REMARK    5  A    between atoms: O_11  and  C_35
REMARK    6  A    between atoms: O_11  and  C_41
REMARK    7  A    between atoms: C_38  and  C_46
REMARK                            x       y       z     vdW  Elec       q    Type
REMARK                         _______ _______ _______ _____ _____    ______ ____
ROOT
ATOM      1  O   UNL     1       7.869   2.966   0.000  0.00  0.00    +0.000 OA
ATOM      2  O   UNL     1       7.869   0.491   0.000  0.00  0.00    +0.000 OA
ATOM      3  O   UNL     1       6.426   0.462   0.000  0.00  0.00    +0.000 OA
ATOM      4  C   UNL     1       8.583   1.728   0.000  0.00  0.00    +0.000 A 
ATOM      5  C   UNL     1       8.583   2.553   0.000  0.00  0.00    +0.000 A 
ATOM      6  C   UNL     1       7.869   1.316   0.000  0.00  0.00    +0.000 A 
ATOM      7  C   UNL     1       7.154   1.728   0.000  0.00  0.00    +0.000 A 
ATOM      8  C   UNL     1       5.669   2.571   0.000  0.00  0.00    +0.000 A 
ATOM      9  C   UNL     1       7.154   2.553   0.000  0.00  0.00    +0.000 A 
ATOM     10  C   UNL     1       6.417   2.994   0.000  0.00  0.00    +0.000 A 
ATOM     11  C   UNL     1       6.417   1.287   0.000  0.00  0.00    +0.000 A 
ATOM     12  C   UNL     1       5.669   1.711   0.000  0.00  0.00    +0.000 A 
ENDROOT
BRANCH   5  14
ATOM     13  O   UNL     1      11.441   4.203   0.000  0.00  0.00    +0.000 OA
ATOM     14  C   UNL     1       9.297   2.966   0.000  0.00  0.00    +0.000 A 
ATOM     15  C   UNL     1      10.012   2.553   0.000  0.00  0.00    +0.000 A 
ATOM     16  C   UNL     1       9.297   3.791   0.000  0.00  0.00    +0.000 A 
ATOM     17  C   UNL     1      10.726   2.966   0.000  0.00  0.00    +0.000 A 
ATOM     18  C   UNL     1      10.012   4.203   0.000  0.00  0.00    +0.000 A 
ATOM     19  C   UNL     1      10.726   3.791   0.000  0.00  0.00    +0.000 A 
ENDBRANCH   5  14
BRANCH   4  20
ATOM     20  O   UNL     1       9.297   1.316   0.000  0.00  0.00    +0.000 OA
BRANCH  20  28
ATOM     21  O   UNL     1       8.583   0.078   0.000  0.00  0.00    +0.000 OA
ATOM     22  O   UNL     1      10.726  -1.159   0.000  0.00  0.00    +0.000 OA
ATOM     23  O   UNL     1      10.726   0.491   0.000  0.00  0.00    +0.000 OA
ATOM     24  C   UNL     1       9.297  -1.159   0.000  0.00  0.00    +0.000 C 
ATOM     25  C   UNL     1      10.012  -0.747   0.000  0.00  0.00    +0.000 C 
ATOM     26  C   UNL     1       8.583  -0.747   0.000  0.00  0.00    +0.000 C 
ATOM     27  C   UNL     1      10.012   0.078   0.000  0.00  0.00    +0.000 C 
ATOM     28  C   UNL     1       9.297   0.491   0.000  0.00  0.00    +0.000 C 
ATOM     29  C   UNL     1       7.869  -1.159   0.000  0.00  0.00    +0.000 C 
BRANCH  24  30
ATOM     30  O   UNL     1       9.297  -1.984   0.000  0.00  0.00    +0.000 OA
BRANCH  30  35
ATOM     31  O   UNL     1       7.869  -1.984   0.000  0.00  0.00    +0.000 OA
ATOM     32  O   UNL     1       9.297  -3.634   0.000  0.00  0.00    +0.000 OA
ATOM     33  O   UNL     1       7.869  -4.459   0.000  0.00  0.00    +0.000 OA
ATOM     34  O   UNL     1       6.440  -3.634   0.000  0.00  0.00    +0.000 OA
ATOM     35  C   UNL     1       8.583  -2.397   0.000  0.00  0.00    +0.000 C 
ATOM     36  C   UNL     1       8.583  -3.222   0.000  0.00  0.00    +0.000 C 
ATOM     37  C   UNL     1       7.869  -3.634   0.000  0.00  0.00    +0.000 C 
ATOM     38  C   UNL     1       7.154  -3.222   0.000  0.00  0.00    +0.000 C 
ATOM     39  C   UNL     1       7.154  -2.397   0.000  0.00  0.00    +0.000 C 
ATOM     40  C   UNL     1       6.440  -1.984   0.000  0.00  0.00    +0.000 C 
ENDBRANCH  30  35
ENDBRANCH  24  30
ENDBRANCH  20  28
ENDBRANCH   4  20
BRANCH   8  41
ATOM     41  O   UNL     1       4.956   2.986   0.000  0.00  0.00    +0.000 OA
BRANCH  41  50
ATOM     42  O   UNL     1       3.527   2.991   0.000  0.00  0.00    +0.000 OA
ATOM     43  O   UNL     1       3.518   0.516   0.000  0.00  0.00    +0.000 OA
ATOM     44  O   UNL     1       2.092   1.347   0.000  0.00  0.00    +0.000 OA
ATOM     45  O   UNL     1       4.950   1.336   0.000  0.00  0.00    +0.000 OA
ATOM     46  C   UNL     1       3.521   1.341   0.000  0.00  0.00    +0.000 C 
ATOM     47  C   UNL     1       2.808   1.757   0.000  0.00  0.00    +0.000 C 
ATOM     48  C   UNL     1       4.237   1.751   0.000  0.00  0.00    +0.000 C 
ATOM     49  C   UNL     1       2.811   2.582   0.000  0.00  0.00    +0.000 C 
ATOM     50  C   UNL     1       4.240   2.576   0.000  0.00  0.00    +0.000 C 
ATOM     51  C   UNL     1       2.098   2.997   0.000  0.00  0.00    +0.000 C 
ENDBRANCH  41  50
ENDBRANCH   8  41
TORSDOF 7
