REMARK  Name = 131831379
REMARK  5 active torsions:
REMARK  status: ('A' for Active; 'I' for Inactive)
REMARK    1  A    between atoms: S_1  and  O_3
REMARK    2  A    between atoms: O_3  and  C_14
REMARK    3  A    between atoms: C_16  and  C_19
REMARK    4  A    between atoms: C_18  and  C_20
REMARK    5  A    between atoms: C_24  and  C_29
REMARK                            x       y       z     vdW  Elec       q    Type
REMARK                         _______ _______ _______ _____ _____    ______ ____
ROOT
ATOM      1  O   UNL     1       6.802   0.810   0.000  0.00  0.00    +0.000 OA
ATOM      2  O   UNL     1       3.310   0.845   0.000  0.00  0.00    +0.000 OA
ATOM      3  O   UNL     1       5.042   3.845   0.000  0.00  0.00    +0.000 OA
ATOM      4  O   UNL     1       6.790   3.880   0.000  0.00  0.00    +0.000 OA
ATOM      5  C   UNL     1       5.042   0.845   0.000  0.00  0.00    +0.000 A 
ATOM      6  C   UNL     1       5.908   1.345   0.000  0.00  0.00    +0.000 A 
ATOM      7  C   UNL     1       4.176   1.345   0.000  0.00  0.00    +0.000 A 
ATOM      8  C   UNL     1       5.908   2.345   0.000  0.00  0.00    +0.000 A 
ATOM      9  C   UNL     1       7.708   1.324   0.000  0.00  0.00    +0.000 C 
ATOM     10  C   UNL     1       7.708   2.366   0.000  0.00  0.00    +0.000 C 
ATOM     11  C   UNL     1       6.802   2.880   0.000  0.00  0.00    +0.000 C 
ATOM     12  C   UNL     1       5.042   2.845   0.000  0.00  0.00    +0.000 A 
ATOM     13  C   UNL     1       4.176   2.345   0.000  0.00  0.00    +0.000 A 
ENDROOT
BRANCH   5  19
ATOM     14  O   UNL     1       5.908  -0.655   0.000  0.00  0.00    +0.000 OA
ATOM     15  O   UNL     1       3.310  -0.155   0.000  0.00  0.00    +0.000 OA
ATOM     16  O   UNL     1       5.042  -3.155   0.000  0.00  0.00    +0.000 OA
ATOM     17  C   UNL     1       4.176  -1.655   0.000  0.00  0.00    +0.000 C 
ATOM     18  C   UNL     1       4.176  -0.655   0.000  0.00  0.00    +0.000 C 
ATOM     19  C   UNL     1       5.042  -0.155   0.000  0.00  0.00    +0.000 C 
ATOM     20  C   UNL     1       5.042  -2.155   0.000  0.00  0.00    +0.000 C 
ATOM     21  C   UNL     1       5.908  -1.655   0.000  0.00  0.00    +0.000 C 
BRANCH  21  23
ATOM     22  O   UNL     1       6.774  -3.155   0.000  0.00  0.00    +0.000 OA
ATOM     23  C   UNL     1       6.774  -2.155   0.000  0.00  0.00    +0.000 C 
ENDBRANCH  21  23
BRANCH  17  24
ATOM     24  O   UNL     1       3.310  -2.155   0.000  0.00  0.00    +0.000 OA
BRANCH  24  25
ATOM     25  S   UNL     1       3.310  -3.155   0.000  0.00  0.00    +0.000 S 
ATOM     26  O   UNL     1       2.310  -3.155   0.000  0.00  0.00    +0.000 OA
ATOM     27  O   UNL     1       3.310  -4.155   0.000  0.00  0.00    +0.000 OA
ATOM     28  O   UNL     1       4.310  -3.155   0.000  0.00  0.00    +0.000 OA
ENDBRANCH  24  25
ENDBRANCH  17  24
ENDBRANCH   5  19
BRANCH   9  29
ATOM     29  C   UNL     1       8.572   0.821   0.000  0.00  0.00    +0.000 A 
ATOM     30  C   UNL     1       8.568  -0.179   0.000  0.00  0.00    +0.000 A 
ATOM     31  C   UNL     1       9.440   1.317   0.000  0.00  0.00    +0.000 A 
ATOM     32  C   UNL     1       9.432  -0.682   0.000  0.00  0.00    +0.000 A 
ATOM     33  C   UNL     1      10.304   0.814   0.000  0.00  0.00    +0.000 A 
ATOM     34  C   UNL     1      10.300  -0.186   0.000  0.00  0.00    +0.000 A 
ENDBRANCH   9  29
TORSDOF 5
