REMARK  Name = 46896123
REMARK  5 active torsions:
REMARK  status: ('A' for Active; 'I' for Inactive)
REMARK    1  A    between atoms: O_2  and  C_16
REMARK    2  A    between atoms: O_2  and  C_20
REMARK    3  A    between atoms: O_9  and  C_24
REMARK    4  A    between atoms: C_17  and  C_18
REMARK    5  A    between atoms: C_19  and  C_21
REMARK                            x       y       z     vdW  Elec       q    Type
REMARK                         _______ _______ _______ _____ _____    ______ ____
ROOT
ATOM      1  C   UNL     1       7.775  -1.036   0.000  0.00  0.00    +0.000 A 
ATOM      2  C   UNL     1       6.909   0.464   0.000  0.00  0.00    +0.000 A 
ATOM      3  C   UNL     1       6.909  -0.536   0.000  0.00  0.00    +0.000 A 
ATOM      4  C   UNL     1       8.641  -0.536   0.000  0.00  0.00    +0.000 A 
ATOM      5  C   UNL     1       7.775   0.964   0.000  0.00  0.00    +0.000 A 
ATOM      6  C   UNL     1       8.641   0.464   0.000  0.00  0.00    +0.000 A 
ENDROOT
BRANCH   2  11
ATOM      7  O   UNL     1       6.043   1.964   0.000  0.00  0.00    +0.000 OA
ATOM      8  O   UNL     1       3.445   0.464   0.000  0.00  0.00    +0.000 OA
ATOM      9  O   UNL     1       2.541   1.961   0.000  0.00  0.00    +0.000 OA
ATOM     10  O   UNL     1       4.299   5.034   0.000  0.00  0.00    +0.000 OA
ATOM     11  C   UNL     1       6.043   0.964   0.000  0.00  0.00    +0.000 C 
ATOM     12  C   UNL     1       5.177   0.464   0.000  0.00  0.00    +0.000 C 
ATOM     13  C   UNL     1       4.311   0.964   0.000  0.00  0.00    +0.000 C 
ATOM     14  C   UNL     1       4.311   1.964   0.000  0.00  0.00    +0.000 A 
ATOM     15  C   UNL     1       5.177   2.464   0.000  0.00  0.00    +0.000 A 
ATOM     16  C   UNL     1       3.401   2.471   0.000  0.00  0.00    +0.000 A 
ATOM     17  C   UNL     1       5.193   3.506   0.000  0.00  0.00    +0.000 A 
ATOM     18  C   UNL     1       4.295   4.034   0.000  0.00  0.00    +0.000 A 
ATOM     19  C   UNL     1       3.393   3.513   0.000  0.00  0.00    +0.000 A 
ENDBRANCH   2  11
BRANCH   4  20
ATOM     20  O   UNL     1       9.507  -1.036   0.000  0.00  0.00    +0.000 OA
ATOM     21  C   UNL     1      10.373  -0.536   0.000  0.00  0.00    +0.000 C 
ENDBRANCH   4  20
BRANCH   1  22
ATOM     22  O   UNL     1       7.775  -2.036   0.000  0.00  0.00    +0.000 OA
BRANCH  22  30
ATOM     23  O   UNL     1       6.043  -2.036   0.000  0.00  0.00    +0.000 OA
ATOM     24  O   UNL     1       6.043  -5.036   0.000  0.00  0.00    +0.000 OA
ATOM     25  O   UNL     1       7.775  -4.036   0.000  0.00  0.00    +0.000 OA
ATOM     26  O   UNL     1       4.311  -4.036   0.000  0.00  0.00    +0.000 OA
ATOM     27  C   UNL     1       6.043  -4.036   0.000  0.00  0.00    +0.000 C 
ATOM     28  C   UNL     1       6.909  -3.536   0.000  0.00  0.00    +0.000 C 
ATOM     29  C   UNL     1       5.177  -3.536   0.000  0.00  0.00    +0.000 C 
ATOM     30  C   UNL     1       6.909  -2.536   0.000  0.00  0.00    +0.000 C 
ATOM     31  C   UNL     1       5.177  -2.536   0.000  0.00  0.00    +0.000 C 
BRANCH  31  34
ATOM     32  O   UNL     1       3.445  -2.536   0.000  0.00  0.00    +0.000 OA
ATOM     33  O   UNL     1       4.311  -1.036   0.000  0.00  0.00    +0.000 OA
ATOM     34  C   UNL     1       4.311  -2.036   0.000  0.00  0.00    +0.000 C 
ENDBRANCH  31  34
ENDBRANCH  22  30
ENDBRANCH   1  22
TORSDOF 5
