REMARK  Name = 44259460
REMARK  6 active torsions:
REMARK  status: ('A' for Active; 'I' for Inactive)
REMARK    1  A    between atoms: O_1  and  C_18
REMARK    2  A    between atoms: O_1  and  C_21
REMARK    3  A    between atoms: O_4  and  C_22
REMARK    4  A    between atoms: O_4  and  C_30
REMARK    5  A    between atoms: C_24  and  C_28
REMARK    6  A    between atoms: C_31  and  C_34
REMARK                            x       y       z     vdW  Elec       q    Type
REMARK                         _______ _______ _______ _____ _____    ______ ____
ROOT
ATOM      1  O   UNL     1       6.867   0.214   0.000  0.00  0.00    +0.000 OA
ENDROOT
BRANCH   1   6
ATOM      2  O   UNL     1       7.733   2.714   0.000  0.00  0.00    +0.000 OA
ATOM      3  O   UNL     1       5.135   1.214   0.000  0.00  0.00    +0.000 OA
ATOM      4  O   UNL     1       4.231   2.711   0.000  0.00  0.00    +0.000 OA
ATOM      5  O   UNL     1       5.989   5.784   0.000  0.00  0.00    +0.000 OA
ATOM      6  C   UNL     1       6.867   1.214   0.000  0.00  0.00    +0.000 A 
ATOM      7  C   UNL     1       7.733   1.714   0.000  0.00  0.00    +0.000 A 
ATOM      8  C   UNL     1       6.001   1.714   0.000  0.00  0.00    +0.000 A 
ATOM      9  C   UNL     1       6.001   2.714   0.000  0.00  0.00    +0.000 A 
ATOM     10  C   UNL     1       6.867   3.214   0.000  0.00  0.00    +0.000 A 
ATOM     11  C   UNL     1       5.091   3.221   0.000  0.00  0.00    +0.000 A 
ATOM     12  C   UNL     1       6.883   4.256   0.000  0.00  0.00    +0.000 A 
ATOM     13  C   UNL     1       5.083   4.263   0.000  0.00  0.00    +0.000 A 
ATOM     14  C   UNL     1       5.985   4.784   0.000  0.00  0.00    +0.000 A 
BRANCH   7  18
ATOM     15  O   UNL     1       9.465  -1.286   0.000  0.00  0.00    +0.000 OA
ATOM     16  O   UNL     1      11.197   1.714   0.000  0.00  0.00    +0.000 OA
ATOM     17  O   UNL     1      11.197  -0.286   0.000  0.00  0.00    +0.000 OA
ATOM     18  C   UNL     1       8.599   1.214   0.000  0.00  0.00    +0.000 A 
ATOM     19  C   UNL     1       9.465   1.714   0.000  0.00  0.00    +0.000 A 
ATOM     20  C   UNL     1       8.599   0.214   0.000  0.00  0.00    +0.000 A 
ATOM     21  C   UNL     1       9.465  -0.286   0.000  0.00  0.00    +0.000 A 
ATOM     22  C   UNL     1      10.331   1.214   0.000  0.00  0.00    +0.000 A 
ATOM     23  C   UNL     1      10.331   0.214   0.000  0.00  0.00    +0.000 A 
ENDBRANCH   7  18
ENDBRANCH   1   6
BRANCH   1  30
ATOM     24  O   UNL     1       5.135   0.214   0.000  0.00  0.00    +0.000 OA
ATOM     25  O   UNL     1       5.135  -2.786   0.000  0.00  0.00    +0.000 OA
ATOM     26  O   UNL     1       3.403  -1.786   0.000  0.00  0.00    +0.000 OA
ATOM     27  C   UNL     1       6.001  -1.286   0.000  0.00  0.00    +0.000 C 
ATOM     28  C   UNL     1       5.135  -1.786   0.000  0.00  0.00    +0.000 C 
ATOM     29  C   UNL     1       4.269  -1.286   0.000  0.00  0.00    +0.000 C 
ATOM     30  C   UNL     1       6.001  -0.286   0.000  0.00  0.00    +0.000 C 
ATOM     31  C   UNL     1       4.269  -0.286   0.000  0.00  0.00    +0.000 C 
BRANCH  31  33
ATOM     32  O   UNL     1       2.537  -0.286   0.000  0.00  0.00    +0.000 OA
ATOM     33  C   UNL     1       3.403   0.214   0.000  0.00  0.00    +0.000 C 
ENDBRANCH  31  33
BRANCH  27  34
ATOM     34  O   UNL     1       6.867  -1.786   0.000  0.00  0.00    +0.000 OA
BRANCH  34  39
ATOM     35  O   UNL     1       6.001  -3.286   0.000  0.00  0.00    +0.000 OA
ATOM     36  O   UNL     1       8.599  -2.786   0.000  0.00  0.00    +0.000 OA
ATOM     37  O   UNL     1       8.599  -4.786   0.000  0.00  0.00    +0.000 OA
ATOM     38  O   UNL     1       6.867  -5.786   0.000  0.00  0.00    +0.000 OA
ATOM     39  C   UNL     1       6.867  -2.786   0.000  0.00  0.00    +0.000 C 
ATOM     40  C   UNL     1       7.733  -3.286   0.000  0.00  0.00    +0.000 C 
ATOM     41  C   UNL     1       7.733  -4.286   0.000  0.00  0.00    +0.000 C 
ATOM     42  C   UNL     1       6.867  -4.786   0.000  0.00  0.00    +0.000 C 
ATOM     43  C   UNL     1       6.001  -4.286   0.000  0.00  0.00    +0.000 C 
ATOM     44  C   UNL     1       5.135  -4.786   0.000  0.00  0.00    +0.000 C 
ENDBRANCH  34  39
ENDBRANCH  27  34
ENDBRANCH   1  30
TORSDOF 6
