REMARK  Name = 14187088
REMARK  4 active torsions:
REMARK  status: ('A' for Active; 'I' for Inactive)
REMARK    1  A    between atoms: O_2  and  C_16
REMARK    2  A    between atoms: O_2  and  C_18
REMARK    3  A    between atoms: C_17  and  C_20
REMARK    4  A    between atoms: C_19  and  C_22
REMARK                            x       y       z     vdW  Elec       q    Type
REMARK                         _______ _______ _______ _____ _____    ______ ____
ROOT
ATOM      1  O   UNL     1       7.733   1.214   0.000  0.00  0.00    +0.000 OA
ATOM      2  O   UNL     1       5.135  -0.286   0.000  0.00  0.00    +0.000 OA
ATOM      3  O   UNL     1       4.231   1.211   0.000  0.00  0.00    +0.000 OA
ATOM      4  O   UNL     1       5.989   4.284   0.000  0.00  0.00    +0.000 OA
ATOM      5  C   UNL     1       6.867  -0.286   0.000  0.00  0.00    +0.000 C 
ATOM      6  C   UNL     1       7.733   0.214   0.000  0.00  0.00    +0.000 C 
ATOM      7  C   UNL     1       6.001   0.214   0.000  0.00  0.00    +0.000 C 
ATOM      8  C   UNL     1       6.001   1.214   0.000  0.00  0.00    +0.000 A 
ATOM      9  C   UNL     1       6.867   1.714   0.000  0.00  0.00    +0.000 A 
ATOM     10  C   UNL     1       5.091   1.721   0.000  0.00  0.00    +0.000 A 
ATOM     11  C   UNL     1       6.883   2.756   0.000  0.00  0.00    +0.000 A 
ATOM     12  C   UNL     1       5.083   2.763   0.000  0.00  0.00    +0.000 A 
ATOM     13  C   UNL     1       5.985   3.284   0.000  0.00  0.00    +0.000 A 
ENDROOT
BRANCH   6  16
ATOM     14  O   UNL     1      11.197   0.214   0.000  0.00  0.00    +0.000 OA
ATOM     15  O   UNL     1      11.197  -1.786   0.000  0.00  0.00    +0.000 OA
ATOM     16  C   UNL     1       8.599  -0.286   0.000  0.00  0.00    +0.000 A 
ATOM     17  C   UNL     1       9.465   0.214   0.000  0.00  0.00    +0.000 A 
ATOM     18  C   UNL     1       8.599  -1.286   0.000  0.00  0.00    +0.000 A 
ATOM     19  C   UNL     1      10.331  -0.286   0.000  0.00  0.00    +0.000 A 
ATOM     20  C   UNL     1       9.465  -1.786   0.000  0.00  0.00    +0.000 A 
ATOM     21  C   UNL     1      10.331  -1.286   0.000  0.00  0.00    +0.000 A 
ENDBRANCH   6  16
BRANCH   5  22
ATOM     22  O   UNL     1       6.867  -1.286   0.000  0.00  0.00    +0.000 OA
BRANCH  22  30
ATOM     23  O   UNL     1       5.135  -1.286   0.000  0.00  0.00    +0.000 OA
ATOM     24  O   UNL     1       5.135  -4.286   0.000  0.00  0.00    +0.000 OA
ATOM     25  O   UNL     1       6.867  -3.286   0.000  0.00  0.00    +0.000 OA
ATOM     26  O   UNL     1       3.403  -3.286   0.000  0.00  0.00    +0.000 OA
ATOM     27  C   UNL     1       5.135  -3.286   0.000  0.00  0.00    +0.000 C 
ATOM     28  C   UNL     1       6.001  -2.786   0.000  0.00  0.00    +0.000 C 
ATOM     29  C   UNL     1       4.269  -2.786   0.000  0.00  0.00    +0.000 C 
ATOM     30  C   UNL     1       6.001  -1.786   0.000  0.00  0.00    +0.000 C 
ATOM     31  C   UNL     1       4.269  -1.786   0.000  0.00  0.00    +0.000 C 
BRANCH  31  33
ATOM     32  O   UNL     1       2.537  -1.786   0.000  0.00  0.00    +0.000 OA
ATOM     33  C   UNL     1       3.403  -1.286   0.000  0.00  0.00    +0.000 C 
ENDBRANCH  31  33
ENDBRANCH  22  30
ENDBRANCH   5  22
TORSDOF 4
