REMARK  Name = 44257565
REMARK  4 active torsions:
REMARK  status: ('A' for Active; 'I' for Inactive)
REMARK    1  A    between atoms: O_2  and  C_14
REMARK    2  A    between atoms: O_2  and  C_16
REMARK    3  A    between atoms: C_13  and  C_15
REMARK    4  A    between atoms: C_23  and  C_25
REMARK                            x       y       z     vdW  Elec       q    Type
REMARK                         _______ _______ _______ _____ _____    ______ ____
ROOT
ATOM      1  O   UNL     1       8.623   1.690   0.000  0.00  0.00    +0.000 OA
ATOM      2  O   UNL     1       6.031   3.200   0.000  0.00  0.00    +0.000 OA
ATOM      3  C   UNL     1       6.867  -0.373   0.000  0.00  0.00    +0.000 A 
ATOM      4  C   UNL     1       7.767   0.151   0.000  0.00  0.00    +0.000 A 
ATOM      5  C   UNL     1       5.967   0.151   0.000  0.00  0.00    +0.000 A 
ATOM      6  C   UNL     1       7.755   1.193   0.000  0.00  0.00    +0.000 A 
ATOM      7  C   UNL     1       6.891   1.696   0.000  0.00  0.00    +0.000 A 
ATOM      8  C   UNL     1       5.979   1.193   0.000  0.00  0.00    +0.000 A 
ATOM      9  C   UNL     1       6.895   2.696   0.000  0.00  0.00    +0.000 A 
ATOM     10  C   UNL     1       8.627   2.690   0.000  0.00  0.00    +0.000 A 
ATOM     11  C   UNL     1       7.763   3.193   0.000  0.00  0.00    +0.000 A 
ENDROOT
BRANCH  10  13
ATOM     12  O   UNL     1      10.355   1.683   0.000  0.00  0.00    +0.000 OA
ATOM     13  C   UNL     1       9.495   3.186   0.000  0.00  0.00    +0.000 A 
ATOM     14  C   UNL     1      10.359   2.683   0.000  0.00  0.00    +0.000 A 
ATOM     15  C   UNL     1       9.499   4.186   0.000  0.00  0.00    +0.000 A 
ATOM     16  C   UNL     1      11.227   3.180   0.000  0.00  0.00    +0.000 A 
ATOM     17  C   UNL     1      10.367   4.683   0.000  0.00  0.00    +0.000 A 
ATOM     18  C   UNL     1      11.231   4.180   0.000  0.00  0.00    +0.000 A 
ENDBRANCH  10  13
BRANCH   3  19
ATOM     19  O   UNL     1       6.867  -1.373   0.000  0.00  0.00    +0.000 OA
BRANCH  19  28
ATOM     20  O   UNL     1       5.135  -1.373   0.000  0.00  0.00    +0.000 OA
ATOM     21  O   UNL     1       5.135  -4.373   0.000  0.00  0.00    +0.000 OA
ATOM     22  O   UNL     1       3.403  -3.373   0.000  0.00  0.00    +0.000 OA
ATOM     23  O   UNL     1       6.867  -3.373   0.000  0.00  0.00    +0.000 OA
ATOM     24  C   UNL     1       5.135  -3.373   0.000  0.00  0.00    +0.000 C 
ATOM     25  C   UNL     1       4.269  -2.873   0.000  0.00  0.00    +0.000 C 
ATOM     26  C   UNL     1       6.001  -2.873   0.000  0.00  0.00    +0.000 C 
ATOM     27  C   UNL     1       4.269  -1.873   0.000  0.00  0.00    +0.000 C 
ATOM     28  C   UNL     1       6.001  -1.873   0.000  0.00  0.00    +0.000 C 
BRANCH  27  30
ATOM     29  O   UNL     1       2.537  -1.873   0.000  0.00  0.00    +0.000 OA
ATOM     30  C   UNL     1       3.403  -1.373   0.000  0.00  0.00    +0.000 C 
ENDBRANCH  27  30
ENDBRANCH  19  28
ENDBRANCH   3  19
TORSDOF 4
