REMARK  Name = 42607635
REMARK  6 active torsions:
REMARK  status: ('A' for Active; 'I' for Inactive)
REMARK    1  A    between atoms: O_2  and  C_18
REMARK    2  A    between atoms: O_2  and  C_20
REMARK    3  A    between atoms: C_17  and  C_19
REMARK    4  A    between atoms: C_21  and  C_25
REMARK    5  A    between atoms: C_25  and  C_27
REMARK    6  A    between atoms: C_28  and  C_29
REMARK                            x       y       z     vdW  Elec       q    Type
REMARK                         _______ _______ _______ _____ _____    ______ ____
ROOT
ATOM      1  O   UNL     1       4.237   0.697   0.000  0.00  0.00    +0.000 OA
ATOM      2  O   UNL     1       7.094   2.347   0.000  0.00  0.00    +0.000 OA
ATOM      3  O   UNL     1       4.237   2.347   0.000  0.00  0.00    +0.000 OA
ATOM      4  C   UNL     1       5.665   0.697   0.000  0.00  0.00    +0.000 A 
ATOM      5  C   UNL     1       6.380   1.110   0.000  0.00  0.00    +0.000 A 
ATOM      6  C   UNL     1       4.951   1.110   0.000  0.00  0.00    +0.000 A 
ATOM      7  C   UNL     1       6.380   1.935   0.000  0.00  0.00    +0.000 A 
ATOM      8  C   UNL     1       4.951   1.935   0.000  0.00  0.00    +0.000 A 
ATOM      9  C   UNL     1       5.665   2.347   0.000  0.00  0.00    +0.000 A 
ENDROOT
BRANCH   5  11
ATOM     10  O   UNL     1       7.094  -0.128   0.000  0.00  0.00    +0.000 OA
ATOM     11  C   UNL     1       7.094   0.697   0.000  0.00  0.00    +0.000 C 
BRANCH  11  13
ATOM     12  O   UNL     1       7.809   1.935   0.000  0.00  0.00    +0.000 OA
ATOM     13  C   UNL     1       7.809   1.110   0.000  0.00  0.00    +0.000 C 
ATOM     14  C   UNL     1       8.523   0.697   0.000  0.00  0.00    +0.000 C 
BRANCH  14  17
ATOM     15  O   UNL     1      11.381   0.697   0.000  0.00  0.00    +0.000 OA
ATOM     16  O   UNL     1      11.381   2.347   0.000  0.00  0.00    +0.000 OA
ATOM     17  C   UNL     1       9.238   1.110   0.000  0.00  0.00    +0.000 A 
ATOM     18  C   UNL     1       9.952   0.697   0.000  0.00  0.00    +0.000 A 
ATOM     19  C   UNL     1       9.238   1.935   0.000  0.00  0.00    +0.000 A 
ATOM     20  C   UNL     1      10.667   1.110   0.000  0.00  0.00    +0.000 A 
ATOM     21  C   UNL     1       9.952   2.347   0.000  0.00  0.00    +0.000 A 
ATOM     22  C   UNL     1      10.667   1.935   0.000  0.00  0.00    +0.000 A 
ENDBRANCH  14  17
ENDBRANCH  11  13
ENDBRANCH   5  11
BRANCH   4  23
ATOM     23  O   UNL     1       5.665  -0.128   0.000  0.00  0.00    +0.000 OA
BRANCH  23  32
ATOM     24  O   UNL     1       4.237  -0.128   0.000  0.00  0.00    +0.000 OA
ATOM     25  O   UNL     1       4.237  -2.603   0.000  0.00  0.00    +0.000 OA
ATOM     26  O   UNL     1       2.808  -1.778   0.000  0.00  0.00    +0.000 OA
ATOM     27  O   UNL     1       5.665  -1.778   0.000  0.00  0.00    +0.000 OA
ATOM     28  C   UNL     1       4.237  -1.778   0.000  0.00  0.00    +0.000 C 
ATOM     29  C   UNL     1       3.522  -1.365   0.000  0.00  0.00    +0.000 C 
ATOM     30  C   UNL     1       4.951  -1.365   0.000  0.00  0.00    +0.000 C 
ATOM     31  C   UNL     1       3.522  -0.540   0.000  0.00  0.00    +0.000 C 
ATOM     32  C   UNL     1       4.951  -0.540   0.000  0.00  0.00    +0.000 C 
BRANCH  31  34
ATOM     33  O   UNL     1       2.093  -0.540   0.000  0.00  0.00    +0.000 OA
ATOM     34  C   UNL     1       2.808  -0.128   0.000  0.00  0.00    +0.000 C 
ENDBRANCH  31  34
ENDBRANCH  23  32
ENDBRANCH   4  23
TORSDOF 6
