REMARK  Name = 131836786
REMARK  5 active torsions:
REMARK  status: ('A' for Active; 'I' for Inactive)
REMARK    1  A    between atoms: O_2  and  C_14
REMARK    2  A    between atoms: O_2  and  C_16
REMARK    3  A    between atoms: O_9  and  C_28
REMARK    4  A    between atoms: C_15  and  C_18
REMARK    5  A    between atoms: C_17  and  C_20
REMARK                            x       y       z     vdW  Elec       q    Type
REMARK                         _______ _______ _______ _____ _____    ______ ____
ROOT
ATOM      1  O   UNL     1       8.220   0.560   0.000  0.00  0.00    +0.000 OA
ATOM      2  O   UNL     1       5.367  -0.367   0.000  0.00  0.00    +0.000 OA
ATOM      3  O   UNL     1       4.793   1.285   0.000  0.00  0.00    +0.000 OA
ATOM      4  O   UNL     1       7.152   3.925   0.000  0.00  0.00    +0.000 OA
ATOM      5  C   UNL     1       7.061  -0.728   0.000  0.00  0.00    +0.000 C 
ATOM      6  C   UNL     1       8.012  -0.418   0.000  0.00  0.00    +0.000 C 
ATOM      7  C   UNL     1       6.318  -0.058   0.000  0.00  0.00    +0.000 C 
ATOM      8  C   UNL     1       6.526   0.920   0.000  0.00  0.00    +0.000 A 
ATOM      9  C   UNL     1       7.477   1.229   0.000  0.00  0.00    +0.000 A 
ATOM     10  C   UNL     1       5.741   1.605   0.000  0.00  0.00    +0.000 A 
ATOM     11  C   UNL     1       7.709   2.244   0.000  0.00  0.00    +0.000 A 
ATOM     12  C   UNL     1       5.950   2.625   0.000  0.00  0.00    +0.000 A 
ATOM     13  C   UNL     1       6.940   2.947   0.000  0.00  0.00    +0.000 A 
ENDROOT
BRANCH   6  15
ATOM     14  O   UNL     1      10.985  -3.095   0.000  0.00  0.00    +0.000 OA
ATOM     15  C   UNL     1       8.755  -1.088   0.000  0.00  0.00    +0.000 A 
ATOM     16  C   UNL     1       9.706  -0.779   0.000  0.00  0.00    +0.000 A 
ATOM     17  C   UNL     1       8.547  -2.066   0.000  0.00  0.00    +0.000 A 
ATOM     18  C   UNL     1      10.449  -1.448   0.000  0.00  0.00    +0.000 A 
ATOM     19  C   UNL     1       9.290  -2.735   0.000  0.00  0.00    +0.000 A 
ATOM     20  C   UNL     1      10.241  -2.426   0.000  0.00  0.00    +0.000 A 
BRANCH  18  21
ATOM     21  O   UNL     1      11.400  -1.139   0.000  0.00  0.00    +0.000 OA
ATOM     22  C   UNL     1      11.608  -0.161   0.000  0.00  0.00    +0.000 C 
ENDBRANCH  18  21
ENDBRANCH   6  15
BRANCH   5  23
ATOM     23  O   UNL     1       6.853  -1.706   0.000  0.00  0.00    +0.000 OA
BRANCH  23  29
ATOM     24  O   UNL     1       5.093  -1.427   0.000  0.00  0.00    +0.000 OA
ATOM     25  O   UNL     1       6.181  -3.775   0.000  0.00  0.00    +0.000 OA
ATOM     26  O   UNL     1       4.005  -3.775   0.000  0.00  0.00    +0.000 OA
ATOM     27  C   UNL     1       5.593  -2.966   0.000  0.00  0.00    +0.000 C 
ATOM     28  C   UNL     1       4.593  -2.966   0.000  0.00  0.00    +0.000 C 
ATOM     29  C   UNL     1       5.902  -2.015   0.000  0.00  0.00    +0.000 C 
ATOM     30  C   UNL     1       4.284  -2.015   0.000  0.00  0.00    +0.000 C 
BRANCH  30  32
ATOM     31  O   UNL     1       2.590  -2.375   0.000  0.00  0.00    +0.000 OA
ATOM     32  C   UNL     1       3.333  -1.706   0.000  0.00  0.00    +0.000 C 
ENDBRANCH  30  32
ENDBRANCH  23  29
ENDBRANCH   5  23
TORSDOF 5
