REMARK  Name = 44259098
REMARK  7 active torsions:
REMARK  status: ('A' for Active; 'I' for Inactive)
REMARK    1  A    between atoms: O_3  and  C_23
REMARK    2  A    between atoms: O_3  and  C_28
REMARK    3  A    between atoms: O_6  and  C_27
REMARK    4  A    between atoms: O_6  and  C_30
REMARK    5  A    between atoms: C_18  and  C_28
REMARK    6  A    between atoms: C_26  and  C_29
REMARK    7  A    between atoms: C_31  and  C_34
REMARK                            x       y       z     vdW  Elec       q    Type
REMARK                         _______ _______ _______ _____ _____    ______ ____
ROOT
ATOM      1  O   UNL     1       7.800   1.250   0.000  0.00  0.00    +0.000 OA
ENDROOT
BRANCH   1   6
ATOM      2  O   UNL     1       6.068   3.250   0.000  0.00  0.00    +0.000 OA
ATOM      3  O   UNL     1       6.068   0.250   0.000  0.00  0.00    +0.000 OA
ATOM      4  O   UNL     1       4.320   0.215   0.000  0.00  0.00    +0.000 OA
ATOM      5  O   UNL     1       2.538   3.274   0.000  0.00  0.00    +0.000 OA
ATOM      6  C   UNL     1       6.934   1.750   0.000  0.00  0.00    +0.000 A 
ATOM      7  C   UNL     1       6.934   2.750   0.000  0.00  0.00    +0.000 A 
ATOM      8  C   UNL     1       6.068   1.250   0.000  0.00  0.00    +0.000 A 
ATOM      9  C   UNL     1       5.202   1.750   0.000  0.00  0.00    +0.000 A 
ATOM     10  C   UNL     1       5.202   2.750   0.000  0.00  0.00    +0.000 A 
ATOM     11  C   UNL     1       4.308   1.215   0.000  0.00  0.00    +0.000 A 
ATOM     12  C   UNL     1       4.308   3.285   0.000  0.00  0.00    +0.000 A 
ATOM     13  C   UNL     1       3.402   1.729   0.000  0.00  0.00    +0.000 A 
ATOM     14  C   UNL     1       3.402   2.771   0.000  0.00  0.00    +0.000 A 
BRANCH   7  17
ATOM     15  O   UNL     1       8.666   5.750   0.000  0.00  0.00    +0.000 OA
ATOM     16  O   UNL     1      10.398   4.750   0.000  0.00  0.00    +0.000 OA
ATOM     17  C   UNL     1       7.800   3.250   0.000  0.00  0.00    +0.000 A 
ATOM     18  C   UNL     1       7.800   4.250   0.000  0.00  0.00    +0.000 A 
ATOM     19  C   UNL     1       8.666   2.750   0.000  0.00  0.00    +0.000 A 
ATOM     20  C   UNL     1       8.666   4.750   0.000  0.00  0.00    +0.000 A 
ATOM     21  C   UNL     1       9.532   3.250   0.000  0.00  0.00    +0.000 A 
ATOM     22  C   UNL     1       9.532   4.250   0.000  0.00  0.00    +0.000 A 
ENDBRANCH   7  17
ENDBRANCH   1   6
BRANCH   1  31
ATOM     23  O   UNL     1       6.934  -0.250   0.000  0.00  0.00    +0.000 OA
ATOM     24  O   UNL     1       7.800  -2.750   0.000  0.00  0.00    +0.000 OA
ATOM     25  O   UNL     1       9.532  -1.750   0.000  0.00  0.00    +0.000 OA
ATOM     26  O   UNL     1       9.532   0.250   0.000  0.00  0.00    +0.000 OA
ATOM     27  C   UNL     1       6.934  -1.250   0.000  0.00  0.00    +0.000 C 
ATOM     28  C   UNL     1       7.800  -1.750   0.000  0.00  0.00    +0.000 C 
ATOM     29  C   UNL     1       8.666  -1.250   0.000  0.00  0.00    +0.000 C 
ATOM     30  C   UNL     1       8.666  -0.250   0.000  0.00  0.00    +0.000 C 
ATOM     31  C   UNL     1       7.800   0.250   0.000  0.00  0.00    +0.000 C 
BRANCH  27  32
ATOM     32  C   UNL     1       6.068  -1.750   0.000  0.00  0.00    +0.000 C 
BRANCH  32  33
ATOM     33  O   UNL     1       6.068  -2.750   0.000  0.00  0.00    +0.000 OA
BRANCH  33  39
ATOM     34  O   UNL     1       4.336  -2.750   0.000  0.00  0.00    +0.000 OA
ATOM     35  O   UNL     1       6.068  -4.750   0.000  0.00  0.00    +0.000 OA
ATOM     36  O   UNL     1       4.336  -5.750   0.000  0.00  0.00    +0.000 OA
ATOM     37  O   UNL     1       2.604  -4.750   0.000  0.00  0.00    +0.000 OA
ATOM     38  C   UNL     1       5.202  -4.250   0.000  0.00  0.00    +0.000 C 
ATOM     39  C   UNL     1       5.202  -3.250   0.000  0.00  0.00    +0.000 C 
ATOM     40  C   UNL     1       4.336  -4.750   0.000  0.00  0.00    +0.000 C 
ATOM     41  C   UNL     1       3.470  -4.250   0.000  0.00  0.00    +0.000 C 
ATOM     42  C   UNL     1       3.470  -3.250   0.000  0.00  0.00    +0.000 C 
BRANCH  42  44
ATOM     43  O   UNL     1       2.604  -1.750   0.000  0.00  0.00    +0.000 OA
ATOM     44  C   UNL     1       2.604  -2.750   0.000  0.00  0.00    +0.000 C 
ENDBRANCH  42  44
ENDBRANCH  33  39
ENDBRANCH  32  33
ENDBRANCH  27  32
ENDBRANCH   1  31
TORSDOF 7
