REMARK  Name = 44257576
REMARK  6 active torsions:
REMARK  status: ('A' for Active; 'I' for Inactive)
REMARK    1  A    between atoms: O_3  and  C_20
REMARK    2  A    between atoms: O_3  and  C_25
REMARK    3  A    between atoms: O_6  and  C_24
REMARK    4  A    between atoms: O_6  and  C_27
REMARK    5  A    between atoms: C_15  and  C_25
REMARK    6  A    between atoms: C_34  and  C_36
REMARK                            x       y       z     vdW  Elec       q    Type
REMARK                         _______ _______ _______ _____ _____    ______ ____
ROOT
ATOM      1  O   UNL     1       7.733   2.029   0.000  0.00  0.00    +0.000 OA
ATOM      2  O   UNL     1       6.001   4.029   0.000  0.00  0.00    +0.000 OA
ATOM      3  O   UNL     1       7.733   5.029   0.000  0.00  0.00    +0.000 OA
ATOM      4  O   UNL     1       9.465   4.029   0.000  0.00  0.00    +0.000 OA
ATOM      5  C   UNL     1       6.867   2.529   0.000  0.00  0.00    +0.000 C 
ATOM      6  C   UNL     1       6.867   3.529   0.000  0.00  0.00    +0.000 C 
ATOM      7  C   UNL     1       7.733   4.029   0.000  0.00  0.00    +0.000 C 
ATOM      8  C   UNL     1       8.599   3.529   0.000  0.00  0.00    +0.000 C 
ATOM      9  C   UNL     1       8.599   2.529   0.000  0.00  0.00    +0.000 C 
ENDROOT
BRANCH   9  10
ATOM     10  O   UNL     1       9.465   2.029   0.000  0.00  0.00    +0.000 OA
BRANCH  10  13
ATOM     11  O   UNL     1      11.221  -1.034   0.000  0.00  0.00    +0.000 OA
ATOM     12  O   UNL     1       8.629  -2.544   0.000  0.00  0.00    +0.000 OA
ATOM     13  C   UNL     1       9.465   1.029   0.000  0.00  0.00    +0.000 A 
ATOM     14  C   UNL     1      10.365   0.505   0.000  0.00  0.00    +0.000 A 
ATOM     15  C   UNL     1       8.565   0.505   0.000  0.00  0.00    +0.000 A 
ATOM     16  C   UNL     1      10.353  -0.537   0.000  0.00  0.00    +0.000 A 
ATOM     17  C   UNL     1       9.489  -1.040   0.000  0.00  0.00    +0.000 A 
ATOM     18  C   UNL     1       8.577  -0.537   0.000  0.00  0.00    +0.000 A 
ATOM     19  C   UNL     1       9.493  -2.040   0.000  0.00  0.00    +0.000 A 
ATOM     20  C   UNL     1      11.225  -2.034   0.000  0.00  0.00    +0.000 A 
ATOM     21  C   UNL     1      10.361  -2.537   0.000  0.00  0.00    +0.000 A 
BRANCH  20  24
ATOM     22  O   UNL     1      12.969  -5.027   0.000  0.00  0.00    +0.000 OA
ATOM     23  O   UNL     1      14.697  -4.020   0.000  0.00  0.00    +0.000 OA
ATOM     24  C   UNL     1      12.093  -2.530   0.000  0.00  0.00    +0.000 A 
ATOM     25  C   UNL     1      12.097  -3.530   0.000  0.00  0.00    +0.000 A 
ATOM     26  C   UNL     1      12.957  -2.027   0.000  0.00  0.00    +0.000 A 
ATOM     27  C   UNL     1      12.965  -4.027   0.000  0.00  0.00    +0.000 A 
ATOM     28  C   UNL     1      13.825  -2.524   0.000  0.00  0.00    +0.000 A 
ATOM     29  C   UNL     1      13.829  -3.523   0.000  0.00  0.00    +0.000 A 
ENDBRANCH  20  24
ENDBRANCH  10  13
ENDBRANCH   9  10
BRANCH   5  30
ATOM     30  C   UNL     1       6.001   2.029   0.000  0.00  0.00    +0.000 C 
BRANCH  30  31
ATOM     31  O   UNL     1       6.001   1.029   0.000  0.00  0.00    +0.000 OA
BRANCH  31  37
ATOM     32  O   UNL     1       4.269   1.029   0.000  0.00  0.00    +0.000 OA
ATOM     33  O   UNL     1       6.001  -0.971   0.000  0.00  0.00    +0.000 OA
ATOM     34  O   UNL     1       4.269  -1.971   0.000  0.00  0.00    +0.000 OA
ATOM     35  O   UNL     1       2.537  -0.971   0.000  0.00  0.00    +0.000 OA
ATOM     36  C   UNL     1       5.135  -0.471   0.000  0.00  0.00    +0.000 C 
ATOM     37  C   UNL     1       5.135   0.529   0.000  0.00  0.00    +0.000 C 
ATOM     38  C   UNL     1       4.269  -0.971   0.000  0.00  0.00    +0.000 C 
ATOM     39  C   UNL     1       3.403  -0.471   0.000  0.00  0.00    +0.000 C 
ATOM     40  C   UNL     1       3.403   0.529   0.000  0.00  0.00    +0.000 C 
ATOM     41  C   UNL     1       2.537   1.029   0.000  0.00  0.00    +0.000 C 
ENDBRANCH  31  37
ENDBRANCH  30  31
ENDBRANCH   5  30
TORSDOF 6
