REMARK  Name = 44259641
REMARK  4 active torsions:
REMARK  status: ('A' for Active; 'I' for Inactive)
REMARK    1  A    between atoms: O_2  and  C_15
REMARK    2  A    between atoms: O_2  and  C_17
REMARK    3  A    between atoms: O_8  and  C_25
REMARK    4  A    between atoms: C_24  and  C_26
REMARK                            x       y       z     vdW  Elec       q    Type
REMARK                         _______ _______ _______ _____ _____    ______ ____
ROOT
ATOM      1  O   UNL     1       6.399   1.388   0.000  0.00  0.00    +0.000 OA
ATOM      2  O   UNL     1       3.510   1.402   0.000  0.00  0.00    +0.000 OA
ATOM      3  O   UNL     1       4.261   2.634   0.000  0.00  0.00    +0.000 OA
ATOM      4  C   UNL     1       4.951  -0.313   0.000  0.00  0.00    +0.000 A 
ATOM      5  C   UNL     1       5.693   0.119   0.000  0.00  0.00    +0.000 A 
ATOM      6  C   UNL     1       4.208   0.119   0.000  0.00  0.00    +0.000 A 
ATOM      7  C   UNL     1       5.684   0.979   0.000  0.00  0.00    +0.000 A 
ATOM      8  C   UNL     1       4.971   1.394   0.000  0.00  0.00    +0.000 A 
ATOM      9  C   UNL     1       4.218   0.979   0.000  0.00  0.00    +0.000 A 
ATOM     10  C   UNL     1       4.974   2.219   0.000  0.00  0.00    +0.000 A 
ATOM     11  C   UNL     1       6.403   2.213   0.000  0.00  0.00    +0.000 A 
ATOM     12  C   UNL     1       5.690   2.629   0.000  0.00  0.00    +0.000 A 
ENDROOT
BRANCH  11  14
ATOM     13  O   UNL     1       9.267   3.852   0.000  0.00  0.00    +0.000 OA
ATOM     14  C   UNL     1       7.119   2.623   0.000  0.00  0.00    +0.000 A 
ATOM     15  C   UNL     1       7.122   3.448   0.000  0.00  0.00    +0.000 A 
ATOM     16  C   UNL     1       7.832   2.208   0.000  0.00  0.00    +0.000 A 
ATOM     17  C   UNL     1       7.838   3.858   0.000  0.00  0.00    +0.000 A 
ATOM     18  C   UNL     1       8.548   2.618   0.000  0.00  0.00    +0.000 A 
ATOM     19  C   UNL     1       8.551   3.443   0.000  0.00  0.00    +0.000 A 
ENDBRANCH  11  14
BRANCH  12  20
ATOM     20  O   UNL     1       5.693   3.454   0.000  0.00  0.00    +0.000 OA
ATOM     21  C   UNL     1       4.980   3.869   0.000  0.00  0.00    +0.000 C 
ENDBRANCH  12  20
BRANCH   4  22
ATOM     22  O   UNL     1       4.951  -1.138   0.000  0.00  0.00    +0.000 OA
BRANCH  22  31
ATOM     23  O   UNL     1       3.522  -1.138   0.000  0.00  0.00    +0.000 OA
ATOM     24  O   UNL     1       3.522  -3.613   0.000  0.00  0.00    +0.000 OA
ATOM     25  O   UNL     1       2.093  -2.788   0.000  0.00  0.00    +0.000 OA
ATOM     26  O   UNL     1       4.951  -2.788   0.000  0.00  0.00    +0.000 OA
ATOM     27  C   UNL     1       3.522  -2.788   0.000  0.00  0.00    +0.000 C 
ATOM     28  C   UNL     1       2.808  -2.376   0.000  0.00  0.00    +0.000 C 
ATOM     29  C   UNL     1       4.236  -2.376   0.000  0.00  0.00    +0.000 C 
ATOM     30  C   UNL     1       2.808  -1.551   0.000  0.00  0.00    +0.000 C 
ATOM     31  C   UNL     1       4.236  -1.551   0.000  0.00  0.00    +0.000 C 
ATOM     32  C   UNL     1       2.093  -1.138   0.000  0.00  0.00    +0.000 C 
ENDBRANCH  22  31
ENDBRANCH   4  22
TORSDOF 4
