REMARK  Name = 44258818
REMARK  9 active torsions:
REMARK  status: ('A' for Active; 'I' for Inactive)
REMARK    1  A    between atoms: O_1  and  C_21
REMARK    2  A    between atoms: O_1  and  C_26
REMARK    3  A    between atoms: O_4  and  C_24
REMARK    4  A    between atoms: O_4  and  C_34
REMARK    5  A    between atoms: O_13  and  C_36
REMARK    6  A    between atoms: O_13  and  C_39
REMARK    7  A    between atoms: C_30  and  C_34
REMARK    8  A    between atoms: C_31  and  C_38
REMARK    9  A    between atoms: C_40  and  C_43
REMARK                            x       y       z     vdW  Elec       q    Type
REMARK                         _______ _______ _______ _____ _____    ______ ____
ROOT
ATOM      1  O   UNL     1       8.599   1.595   0.000  0.00  0.00    +0.000 OA
ATOM      2  O   UNL     1       9.465  -0.905   0.000  0.00  0.00    +0.000 OA
ATOM      3  O   UNL     1      11.197   0.095   0.000  0.00  0.00    +0.000 OA
ATOM      4  O   UNL     1      11.197   2.095   0.000  0.00  0.00    +0.000 OA
ATOM      5  C   UNL     1       8.599   0.595   0.000  0.00  0.00    +0.000 C 
ATOM      6  C   UNL     1       9.465   0.095   0.000  0.00  0.00    +0.000 C 
ATOM      7  C   UNL     1      10.331   0.595   0.000  0.00  0.00    +0.000 C 
ATOM      8  C   UNL     1      10.331   1.595   0.000  0.00  0.00    +0.000 C 
ATOM      9  C   UNL     1       9.465   2.095   0.000  0.00  0.00    +0.000 C 
ENDROOT
BRANCH   9  10
ATOM     10  O   UNL     1       9.465   3.095   0.000  0.00  0.00    +0.000 OA
BRANCH  10  15
ATOM     11  O   UNL     1       7.733   5.095   0.000  0.00  0.00    +0.000 OA
ATOM     12  O   UNL     1       7.733   2.095   0.000  0.00  0.00    +0.000 OA
ATOM     13  O   UNL     1       5.985   2.060   0.000  0.00  0.00    +0.000 OA
ATOM     14  O   UNL     1       4.203   5.119   0.000  0.00  0.00    +0.000 OA
ATOM     15  C   UNL     1       8.599   3.595   0.000  0.00  0.00    +0.000 A 
ATOM     16  C   UNL     1       8.599   4.595   0.000  0.00  0.00    +0.000 A 
ATOM     17  C   UNL     1       7.733   3.095   0.000  0.00  0.00    +0.000 A 
ATOM     18  C   UNL     1       6.867   3.595   0.000  0.00  0.00    +0.000 A 
ATOM     19  C   UNL     1       6.867   4.595   0.000  0.00  0.00    +0.000 A 
ATOM     20  C   UNL     1       5.973   3.060   0.000  0.00  0.00    +0.000 A 
ATOM     21  C   UNL     1       5.973   5.130   0.000  0.00  0.00    +0.000 A 
ATOM     22  C   UNL     1       5.067   3.574   0.000  0.00  0.00    +0.000 A 
ATOM     23  C   UNL     1       5.067   4.616   0.000  0.00  0.00    +0.000 A 
BRANCH  16  25
ATOM     24  O   UNL     1      12.063   6.595   0.000  0.00  0.00    +0.000 OA
ATOM     25  C   UNL     1       9.465   5.095   0.000  0.00  0.00    +0.000 A 
ATOM     26  C   UNL     1      10.331   4.595   0.000  0.00  0.00    +0.000 A 
ATOM     27  C   UNL     1       9.465   6.095   0.000  0.00  0.00    +0.000 A 
ATOM     28  C   UNL     1      11.197   5.095   0.000  0.00  0.00    +0.000 A 
ATOM     29  C   UNL     1      10.331   6.595   0.000  0.00  0.00    +0.000 A 
ATOM     30  C   UNL     1      11.197   6.095   0.000  0.00  0.00    +0.000 A 
ENDBRANCH  16  25
ENDBRANCH  10  15
ENDBRANCH   9  10
BRANCH   5  31
ATOM     31  C   UNL     1       7.733   0.095   0.000  0.00  0.00    +0.000 C 
BRANCH  31  32
ATOM     32  O   UNL     1       7.733  -0.905   0.000  0.00  0.00    +0.000 OA
BRANCH  32  39
ATOM     33  O   UNL     1       6.001  -0.905   0.000  0.00  0.00    +0.000 OA
ATOM     34  O   UNL     1       7.733  -2.905   0.000  0.00  0.00    +0.000 OA
ATOM     35  O   UNL     1       4.269  -2.905   0.000  0.00  0.00    +0.000 OA
ATOM     36  C   UNL     1       6.001  -2.905   0.000  0.00  0.00    +0.000 C 
ATOM     37  C   UNL     1       6.867  -2.405   0.000  0.00  0.00    +0.000 C 
ATOM     38  C   UNL     1       5.135  -2.405   0.000  0.00  0.00    +0.000 C 
ATOM     39  C   UNL     1       6.867  -1.405   0.000  0.00  0.00    +0.000 C 
ATOM     40  C   UNL     1       5.135  -1.405   0.000  0.00  0.00    +0.000 C 
ATOM     41  C   UNL     1       4.269  -0.905   0.000  0.00  0.00    +0.000 C 
BRANCH  36  42
ATOM     42  O   UNL     1       6.001  -3.905   0.000  0.00  0.00    +0.000 OA
BRANCH  42  47
ATOM     43  O   UNL     1       4.269  -3.905   0.000  0.00  0.00    +0.000 OA
ATOM     44  O   UNL     1       6.001  -5.905   0.000  0.00  0.00    +0.000 OA
ATOM     45  O   UNL     1       4.269  -6.905   0.000  0.00  0.00    +0.000 OA
ATOM     46  O   UNL     1       2.537  -5.905   0.000  0.00  0.00    +0.000 OA
ATOM     47  C   UNL     1       5.135  -4.405   0.000  0.00  0.00    +0.000 C 
ATOM     48  C   UNL     1       5.135  -5.405   0.000  0.00  0.00    +0.000 C 
ATOM     49  C   UNL     1       4.269  -5.905   0.000  0.00  0.00    +0.000 C 
ATOM     50  C   UNL     1       3.403  -5.405   0.000  0.00  0.00    +0.000 C 
ATOM     51  C   UNL     1       3.403  -4.405   0.000  0.00  0.00    +0.000 C 
BRANCH  51  53
ATOM     52  O   UNL     1       2.537  -2.905   0.000  0.00  0.00    +0.000 OA
ATOM     53  C   UNL     1       2.537  -3.905   0.000  0.00  0.00    +0.000 C 
ENDBRANCH  51  53
ENDBRANCH  42  47
ENDBRANCH  36  42
ENDBRANCH  32  39
ENDBRANCH  31  32
ENDBRANCH   5  31
TORSDOF 9
