REMARK  Name = 131752171
REMARK  8 active torsions:
REMARK  status: ('A' for Active; 'I' for Inactive)
REMARK    1  A    between atoms: O_2  and  C_14
REMARK    2  A    between atoms: O_2  and  C_21
REMARK    3  A    between atoms: O_4  and  C_18
REMARK    4  A    between atoms: O_4  and  C_20
REMARK    5  A    between atoms: C_17  and  C_19
REMARK    6  A    between atoms: C_21  and  C_25
REMARK    7  A    between atoms: C_29  and  C_33
REMARK    8  A    between atoms: C_30  and  C_32
REMARK                            x       y       z     vdW  Elec       q    Type
REMARK                         _______ _______ _______ _____ _____    ______ ____
ROOT
ATOM      1  O   UNL     1       6.001   1.320   0.000  0.00  0.00    +0.000 OA
ATOM      2  O   UNL     1       4.269  -0.680   0.000  0.00  0.00    +0.000 OA
ATOM      3  O   UNL     1       7.733  -0.680   0.000  0.00  0.00    +0.000 OA
ATOM      4  C   UNL     1       6.001  -0.680   0.000  0.00  0.00    +0.000 C 
ATOM      5  C   UNL     1       5.135  -0.180   0.000  0.00  0.00    +0.000 C 
ATOM      6  C   UNL     1       6.867  -0.180   0.000  0.00  0.00    +0.000 C 
ATOM      7  C   UNL     1       5.135   0.820   0.000  0.00  0.00    +0.000 C 
ATOM      8  C   UNL     1       6.867   0.820   0.000  0.00  0.00    +0.000 C 
ENDROOT
BRANCH   7  10
ATOM      9  O   UNL     1       3.403   0.820   0.000  0.00  0.00    +0.000 OA
ATOM     10  C   UNL     1       4.269   1.320   0.000  0.00  0.00    +0.000 C 
ENDBRANCH   7  10
BRANCH   4  11
ATOM     11  O   UNL     1       6.001  -1.680   0.000  0.00  0.00    +0.000 OA
BRANCH  11  13
ATOM     12  O   UNL     1       4.269  -1.680   0.000  0.00  0.00    +0.000 OA
ATOM     13  C   UNL     1       5.135  -2.180   0.000  0.00  0.00    +0.000 C 
BRANCH  13  14
ATOM     14  C   UNL     1       5.135  -3.180   0.000  0.00  0.00    +0.000 C 
ATOM     15  C   UNL     1       4.269  -3.680   0.000  0.00  0.00    +0.000 C 
BRANCH  15  18
ATOM     16  O   UNL     1       2.537  -6.680   0.000  0.00  0.00    +0.000 OA
ATOM     17  O   UNL     1       4.269  -7.680   0.000  0.00  0.00    +0.000 OA
ATOM     18  C   UNL     1       4.269  -4.680   0.000  0.00  0.00    +0.000 A 
ATOM     19  C   UNL     1       3.403  -5.180   0.000  0.00  0.00    +0.000 A 
ATOM     20  C   UNL     1       5.135  -5.180   0.000  0.00  0.00    +0.000 A 
ATOM     21  C   UNL     1       3.403  -6.180   0.000  0.00  0.00    +0.000 A 
ATOM     22  C   UNL     1       5.135  -6.180   0.000  0.00  0.00    +0.000 A 
ATOM     23  C   UNL     1       4.269  -6.680   0.000  0.00  0.00    +0.000 A 
ENDBRANCH  15  18
ENDBRANCH  13  14
ENDBRANCH  11  13
ENDBRANCH   4  11
BRANCH   8  24
ATOM     24  O   UNL     1       7.733   1.320   0.000  0.00  0.00    +0.000 OA
BRANCH  24  28
ATOM     25  O   UNL     1       9.489   4.383   0.000  0.00  0.00    +0.000 OA
ATOM     26  O   UNL     1       5.987   4.400   0.000  0.00  0.00    +0.000 OA
ATOM     27  O   UNL     1       6.897   5.893   0.000  0.00  0.00    +0.000 OA
ATOM     28  C   UNL     1       7.733   2.320   0.000  0.00  0.00    +0.000 A 
ATOM     29  C   UNL     1       8.633   2.845   0.000  0.00  0.00    +0.000 A 
ATOM     30  C   UNL     1       6.833   2.845   0.000  0.00  0.00    +0.000 A 
ATOM     31  C   UNL     1       8.621   3.886   0.000  0.00  0.00    +0.000 A 
ATOM     32  C   UNL     1       7.757   4.390   0.000  0.00  0.00    +0.000 A 
ATOM     33  C   UNL     1       6.845   3.886   0.000  0.00  0.00    +0.000 A 
ATOM     34  C   UNL     1       7.761   5.390   0.000  0.00  0.00    +0.000 A 
ATOM     35  C   UNL     1       9.493   5.383   0.000  0.00  0.00    +0.000 A 
ATOM     36  C   UNL     1       8.629   5.886   0.000  0.00  0.00    +0.000 A 
BRANCH  35  38
ATOM     37  O   UNL     1      12.965   7.370   0.000  0.00  0.00    +0.000 OA
ATOM     38  C   UNL     1      10.361   5.880   0.000  0.00  0.00    +0.000 A 
ATOM     39  C   UNL     1      10.365   6.880   0.000  0.00  0.00    +0.000 A 
ATOM     40  C   UNL     1      11.225   5.376   0.000  0.00  0.00    +0.000 A 
ATOM     41  C   UNL     1      11.233   7.376   0.000  0.00  0.00    +0.000 A 
ATOM     42  C   UNL     1      12.093   5.873   0.000  0.00  0.00    +0.000 A 
ATOM     43  C   UNL     1      12.097   6.873   0.000  0.00  0.00    +0.000 A 
ENDBRANCH  35  38
ENDBRANCH  24  28
ENDBRANCH   8  24
TORSDOF 8
