REMARK  Name = 42607621
REMARK  7 active torsions:
REMARK  status: ('A' for Active; 'I' for Inactive)
REMARK    1  A    between atoms: O_4  and  C_15
REMARK    2  A    between atoms: O_4  and  C_17
REMARK    3  A    between atoms: O_7  and  C_20
REMARK    4  A    between atoms: C_13  and  C_16
REMARK    5  A    between atoms: C_22  and  C_23
REMARK    6  A    between atoms: C_23  and  C_24
REMARK    7  A    between atoms: C_26  and  C_27
REMARK                            x       y       z     vdW  Elec       q    Type
REMARK                         _______ _______ _______ _____ _____    ______ ____
ROOT
ATOM      1  O   UNL     1       5.135   0.595   0.000  0.00  0.00    +0.000 OA
ATOM      2  C   UNL     1       6.867  -1.405   0.000  0.00  0.00    +0.000 A 
ATOM      3  C   UNL     1       7.733  -0.905   0.000  0.00  0.00    +0.000 A 
ATOM      4  C   UNL     1       6.001  -0.905   0.000  0.00  0.00    +0.000 A 
ATOM      5  C   UNL     1       7.733   0.095   0.000  0.00  0.00    +0.000 A 
ATOM      6  C   UNL     1       6.001   0.095   0.000  0.00  0.00    +0.000 A 
ATOM      7  C   UNL     1       6.867   0.595   0.000  0.00  0.00    +0.000 A 
ENDROOT
BRANCH   5   8
ATOM      8  O   UNL     1       8.599   0.595   0.000  0.00  0.00    +0.000 OA
ATOM      9  C   UNL     1       9.465   0.095   0.000  0.00  0.00    +0.000 C 
ENDBRANCH   5   8
BRANCH   7  11
ATOM     10  O   UNL     1       6.001   2.095   0.000  0.00  0.00    +0.000 OA
ATOM     11  C   UNL     1       6.867   1.595   0.000  0.00  0.00    +0.000 C 
BRANCH  11  12
ATOM     12  C   UNL     1       7.733   2.095   0.000  0.00  0.00    +0.000 C 
ATOM     13  C   UNL     1       7.733   3.095   0.000  0.00  0.00    +0.000 C 
BRANCH  13  15
ATOM     14  O   UNL     1      11.197   5.095   0.000  0.00  0.00    +0.000 OA
ATOM     15  C   UNL     1       8.599   3.595   0.000  0.00  0.00    +0.000 A 
ATOM     16  C   UNL     1       8.599   4.595   0.000  0.00  0.00    +0.000 A 
ATOM     17  C   UNL     1       9.465   3.095   0.000  0.00  0.00    +0.000 A 
ATOM     18  C   UNL     1       9.465   5.095   0.000  0.00  0.00    +0.000 A 
ATOM     19  C   UNL     1      10.331   3.595   0.000  0.00  0.00    +0.000 A 
ATOM     20  C   UNL     1      10.331   4.595   0.000  0.00  0.00    +0.000 A 
ENDBRANCH  13  15
ENDBRANCH  11  12
ENDBRANCH   7  11
BRANCH   2  21
ATOM     21  O   UNL     1       6.867  -2.405   0.000  0.00  0.00    +0.000 OA
BRANCH  21  30
ATOM     22  O   UNL     1       5.135  -2.405   0.000  0.00  0.00    +0.000 OA
ATOM     23  O   UNL     1       3.403  -4.405   0.000  0.00  0.00    +0.000 OA
ATOM     24  O   UNL     1       5.135  -5.405   0.000  0.00  0.00    +0.000 OA
ATOM     25  O   UNL     1       6.867  -4.405   0.000  0.00  0.00    +0.000 OA
ATOM     26  C   UNL     1       4.269  -3.905   0.000  0.00  0.00    +0.000 C 
ATOM     27  C   UNL     1       5.135  -4.405   0.000  0.00  0.00    +0.000 C 
ATOM     28  C   UNL     1       4.269  -2.905   0.000  0.00  0.00    +0.000 C 
ATOM     29  C   UNL     1       6.001  -3.905   0.000  0.00  0.00    +0.000 C 
ATOM     30  C   UNL     1       6.001  -2.905   0.000  0.00  0.00    +0.000 C 
BRANCH  28  32
ATOM     31  O   UNL     1       2.537  -2.905   0.000  0.00  0.00    +0.000 OA
ATOM     32  C   UNL     1       3.403  -2.405   0.000  0.00  0.00    +0.000 C 
ENDBRANCH  28  32
ENDBRANCH  21  30
ENDBRANCH   2  21
TORSDOF 7
