REMARK  Name = 44258420
REMARK  3 active torsions:
REMARK  status: ('A' for Active; 'I' for Inactive)
REMARK    1  A    between atoms: O_2  and  C_14
REMARK    2  A    between atoms: O_2  and  C_16
REMARK    3  A    between atoms: C_23  and  C_25
REMARK                            x       y       z     vdW  Elec       q    Type
REMARK                         _______ _______ _______ _____ _____    ______ ____
ROOT
ATOM      1  O   UNL     1       7.832  -0.761   0.000  0.00  0.00    +0.000 OA
ATOM      2  O   UNL     1       6.380   1.742   0.000  0.00  0.00    +0.000 OA
ATOM      3  O   UNL     1       4.951  -0.733   0.000  0.00  0.00    +0.000 OA
ATOM      4  O   UNL     1       7.822   1.771   0.000  0.00  0.00    +0.000 OA
ATOM      5  C   UNL     1       5.665   0.505   0.000  0.00  0.00    +0.000 A 
ATOM      6  C   UNL     1       6.380   0.917   0.000  0.00  0.00    +0.000 A 
ATOM      7  C   UNL     1       7.094   0.505   0.000  0.00  0.00    +0.000 A 
ATOM      8  C   UNL     1       5.665  -0.320   0.000  0.00  0.00    +0.000 A 
ATOM      9  C   UNL     1       7.094  -0.320   0.000  0.00  0.00    +0.000 A 
ATOM     10  C   UNL     1       6.380  -0.733   0.000  0.00  0.00    +0.000 A 
ATOM     11  C   UNL     1       7.832   0.946   0.000  0.00  0.00    +0.000 A 
ATOM     12  C   UNL     1       8.579  -0.337   0.000  0.00  0.00    +0.000 A 
ATOM     13  C   UNL     1       8.579   0.522   0.000  0.00  0.00    +0.000 A 
ENDROOT
BRANCH  12  15
ATOM     14  O   UNL     1      11.431  -1.998   0.000  0.00  0.00    +0.000 OA
ATOM     15  C   UNL     1       9.292  -0.752   0.000  0.00  0.00    +0.000 A 
ATOM     16  C   UNL     1      10.008  -0.343   0.000  0.00  0.00    +0.000 A 
ATOM     17  C   UNL     1       9.289  -1.577   0.000  0.00  0.00    +0.000 A 
ATOM     18  C   UNL     1      10.721  -0.758   0.000  0.00  0.00    +0.000 A 
ATOM     19  C   UNL     1      10.002  -1.993   0.000  0.00  0.00    +0.000 A 
ATOM     20  C   UNL     1      10.718  -1.583   0.000  0.00  0.00    +0.000 A 
ENDBRANCH  12  15
BRANCH   5  21
ATOM     21  O   UNL     1       4.951   0.917   0.000  0.00  0.00    +0.000 OA
BRANCH  21  29
ATOM     22  O   UNL     1       4.236  -0.320   0.000  0.00  0.00    +0.000 OA
ATOM     23  O   UNL     1       2.093   0.917   0.000  0.00  0.00    +0.000 OA
ATOM     24  O   UNL     1       3.522   1.742   0.000  0.00  0.00    +0.000 OA
ATOM     25  O   UNL     1       2.093  -0.733   0.000  0.00  0.00    +0.000 OA
ATOM     26  C   UNL     1       2.808   0.505   0.000  0.00  0.00    +0.000 C 
ATOM     27  C   UNL     1       3.522   0.917   0.000  0.00  0.00    +0.000 C 
ATOM     28  C   UNL     1       2.808  -0.320   0.000  0.00  0.00    +0.000 C 
ATOM     29  C   UNL     1       4.236   0.505   0.000  0.00  0.00    +0.000 C 
ATOM     30  C   UNL     1       3.522  -0.733   0.000  0.00  0.00    +0.000 C 
ENDBRANCH  21  29
ENDBRANCH   5  21
TORSDOF 3
