REMARK  Name = 15592799
REMARK  6 active torsions:
REMARK  status: ('A' for Active; 'I' for Inactive)
REMARK    1  A    between atoms: O_3  and  C_26
REMARK    2  A    between atoms: O_3  and  C_28
REMARK    3  A    between atoms: C_17  and  C_22
REMARK    4  A    between atoms: C_21  and  C_29
REMARK    5  A    between atoms: C_27  and  C_31
REMARK    6  A    between atoms: C_36  and  C_38
REMARK                            x       y       z     vdW  Elec       q    Type
REMARK                         _______ _______ _______ _____ _____    ______ ____
ROOT
ATOM      1  O   UNL     1       7.857   0.807   0.000  0.00  0.00    +0.000 OA
ATOM      2  O   UNL     1       4.963   0.812   0.000  0.00  0.00    +0.000 OA
ATOM      3  O   UNL     1       7.160   2.070   0.000  0.00  0.00    +0.000 OA
ATOM      4  C   UNL     1       7.143  -0.431   0.000  0.00  0.00    +0.000 A 
ATOM      5  C   UNL     1       6.428  -0.843   0.000  0.00  0.00    +0.000 A 
ATOM      6  C   UNL     1       7.143   0.394   0.000  0.00  0.00    +0.000 A 
ATOM      7  C   UNL     1       5.714  -0.431   0.000  0.00  0.00    +0.000 A 
ATOM      8  C   UNL     1       6.428   0.807   0.000  0.00  0.00    +0.000 A 
ATOM      9  C   UNL     1       5.714   0.394   0.000  0.00  0.00    +0.000 A 
ATOM     10  C   UNL     1       6.441   1.666   0.000  0.00  0.00    +0.000 A 
ATOM     11  C   UNL     1       4.956   1.672   0.000  0.00  0.00    +0.000 A 
ATOM     12  C   UNL     1       5.700   2.102   0.000  0.00  0.00    +0.000 A 
ENDROOT
BRANCH   4  17
ATOM     13  O   UNL     1       8.572  -0.431   0.000  0.00  0.00    +0.000 OA
ATOM     14  O   UNL     1       7.143  -2.081   0.000  0.00  0.00    +0.000 OA
ATOM     15  O   UNL     1       8.572  -2.906   0.000  0.00  0.00    +0.000 OA
ATOM     16  O   UNL     1      10.000  -2.081   0.000  0.00  0.00    +0.000 OA
ATOM     17  C   UNL     1       7.857  -0.843   0.000  0.00  0.00    +0.000 C 
ATOM     18  C   UNL     1       7.857  -1.668   0.000  0.00  0.00    +0.000 C 
ATOM     19  C   UNL     1       8.572  -2.081   0.000  0.00  0.00    +0.000 C 
ATOM     20  C   UNL     1       9.286  -1.668   0.000  0.00  0.00    +0.000 C 
ATOM     21  C   UNL     1       9.286  -0.843   0.000  0.00  0.00    +0.000 C 
BRANCH  21  23
ATOM     22  O   UNL     1      10.715  -0.843   0.000  0.00  0.00    +0.000 OA
ATOM     23  C   UNL     1      10.000  -0.431   0.000  0.00  0.00    +0.000 C 
ENDBRANCH  21  23
ENDBRANCH   4  17
BRANCH  11  26
ATOM     24  O   UNL     1       3.518   4.141   0.000  0.00  0.00    +0.000 OA
ATOM     25  O   UNL     1       2.092   3.311   0.000  0.00  0.00    +0.000 OA
ATOM     26  C   UNL     1       4.240   2.082   0.000  0.00  0.00    +0.000 A 
ATOM     27  C   UNL     1       4.237   2.907   0.000  0.00  0.00    +0.000 A 
ATOM     28  C   UNL     1       3.527   1.666   0.000  0.00  0.00    +0.000 A 
ATOM     29  C   UNL     1       3.521   3.316   0.000  0.00  0.00    +0.000 A 
ATOM     30  C   UNL     1       2.811   2.076   0.000  0.00  0.00    +0.000 A 
ATOM     31  C   UNL     1       2.808   2.901   0.000  0.00  0.00    +0.000 A 
ENDBRANCH  11  26
BRANCH   5  32
ATOM     32  O   UNL     1       6.428  -1.668   0.000  0.00  0.00    +0.000 OA
BRANCH  32  40
ATOM     33  O   UNL     1       4.999  -1.668   0.000  0.00  0.00    +0.000 OA
ATOM     34  O   UNL     1       4.999  -4.143   0.000  0.00  0.00    +0.000 OA
ATOM     35  O   UNL     1       6.428  -3.318   0.000  0.00  0.00    +0.000 OA
ATOM     36  O   UNL     1       3.570  -3.318   0.000  0.00  0.00    +0.000 OA
ATOM     37  C   UNL     1       4.999  -3.318   0.000  0.00  0.00    +0.000 C 
ATOM     38  C   UNL     1       5.714  -2.906   0.000  0.00  0.00    +0.000 C 
ATOM     39  C   UNL     1       4.285  -2.906   0.000  0.00  0.00    +0.000 C 
ATOM     40  C   UNL     1       5.714  -2.081   0.000  0.00  0.00    +0.000 C 
ATOM     41  C   UNL     1       4.285  -2.081   0.000  0.00  0.00    +0.000 C 
BRANCH  41  43
ATOM     42  O   UNL     1       2.856  -2.081   0.000  0.00  0.00    +0.000 OA
ATOM     43  C   UNL     1       3.570  -1.668   0.000  0.00  0.00    +0.000 C 
ENDBRANCH  41  43
ENDBRANCH  32  40
ENDBRANCH   5  32
TORSDOF 6
