REMARK  Name = 131751356
REMARK  8 active torsions:
REMARK  status: ('A' for Active; 'I' for Inactive)
REMARK    1  A    between atoms: O_2  and  C_15
REMARK    2  A    between atoms: O_5  and  C_21
REMARK    3  A    between atoms: O_5  and  C_29
REMARK    4  A    between atoms: C_18  and  C_20
REMARK    5  A    between atoms: C_19  and  C_21
REMARK    6  A    between atoms: C_29  and  C_33
REMARK    7  A    between atoms: C_31  and  C_32
REMARK    8  A    between atoms: C_36  and  C_39
REMARK                            x       y       z     vdW  Elec       q    Type
REMARK                         _______ _______ _______ _____ _____    ______ ____
ROOT
ATOM      1  O   UNL     1       8.795   0.425   0.000  0.00  0.00    +0.000 OA
ATOM      2  O   UNL     1       8.795   2.900   0.000  0.00  0.00    +0.000 OA
ATOM      3  O   UNL     1      10.224   2.075   0.000  0.00  0.00    +0.000 OA
ATOM      4  C   UNL     1       8.080   1.662   0.000  0.00  0.00    +0.000 C 
ATOM      5  C   UNL     1       8.795   2.075   0.000  0.00  0.00    +0.000 C 
ATOM      6  C   UNL     1       9.509   1.662   0.000  0.00  0.00    +0.000 C 
ATOM      7  C   UNL     1       9.509   0.837   0.000  0.00  0.00    +0.000 C 
ATOM      8  C   UNL     1       8.080   0.837   0.000  0.00  0.00    +0.000 C 
ENDROOT
BRANCH   7  13
ATOM      9  O   UNL     1      10.938   1.662   0.000  0.00  0.00    +0.000 OA
ATOM     10  O   UNL     1       9.509  -0.813   0.000  0.00  0.00    +0.000 OA
ATOM     11  O   UNL     1      12.390  -0.841   0.000  0.00  0.00    +0.000 OA
ATOM     12  O   UNL     1      12.380   1.691   0.000  0.00  0.00    +0.000 OA
ATOM     13  C   UNL     1      10.224   0.425   0.000  0.00  0.00    +0.000 A 
ATOM     14  C   UNL     1      10.938   0.837   0.000  0.00  0.00    +0.000 A 
ATOM     15  C   UNL     1      10.224  -0.400   0.000  0.00  0.00    +0.000 A 
ATOM     16  C   UNL     1      11.653   0.425   0.000  0.00  0.00    +0.000 A 
ATOM     17  C   UNL     1      10.938  -0.813   0.000  0.00  0.00    +0.000 A 
ATOM     18  C   UNL     1      11.653  -0.400   0.000  0.00  0.00    +0.000 A 
ATOM     19  C   UNL     1      12.390   0.866   0.000  0.00  0.00    +0.000 A 
ATOM     20  C   UNL     1      13.138   0.442   0.000  0.00  0.00    +0.000 A 
ATOM     21  C   UNL     1      13.138  -0.417   0.000  0.00  0.00    +0.000 A 
BRANCH  21  24
ATOM     22  O   UNL     1      14.557  -2.898   0.000  0.00  0.00    +0.000 OA
ATOM     23  O   UNL     1      15.989  -2.079   0.000  0.00  0.00    +0.000 OA
ATOM     24  C   UNL     1      13.851  -0.833   0.000  0.00  0.00    +0.000 A 
ATOM     25  C   UNL     1      13.847  -1.658   0.000  0.00  0.00    +0.000 A 
ATOM     26  C   UNL     1      14.566  -0.423   0.000  0.00  0.00    +0.000 A 
ATOM     27  C   UNL     1      14.560  -2.073   0.000  0.00  0.00    +0.000 A 
ATOM     28  C   UNL     1      15.279  -0.838   0.000  0.00  0.00    +0.000 A 
ATOM     29  C   UNL     1      15.276  -1.663   0.000  0.00  0.00    +0.000 A 
ENDBRANCH  21  24
ENDBRANCH   7  13
BRANCH   4  30
ATOM     30  O   UNL     1       7.366   2.075   0.000  0.00  0.00    +0.000 OA
ATOM     31  C   UNL     1       7.366   2.900   0.000  0.00  0.00    +0.000 C 
ENDBRANCH   4  30
BRANCH   8  32
ATOM     32  C   UNL     1       7.366   0.425   0.000  0.00  0.00    +0.000 C 
BRANCH  32  33
ATOM     33  O   UNL     1       6.651   0.837   0.000  0.00  0.00    +0.000 OA
BRANCH  33  35
ATOM     34  O   UNL     1       5.937  -0.400   0.000  0.00  0.00    +0.000 OA
ATOM     35  C   UNL     1       5.937   0.425   0.000  0.00  0.00    +0.000 C 
BRANCH  35  36
ATOM     36  C   UNL     1       5.222   0.837   0.000  0.00  0.00    +0.000 C 
ATOM     37  C   UNL     1       4.508   0.425   0.000  0.00  0.00    +0.000 C 
BRANCH  37  40
ATOM     38  O   UNL     1       1.650   0.425   0.000  0.00  0.00    +0.000 OA
ATOM     39  O   UNL     1       1.650   2.075   0.000  0.00  0.00    +0.000 OA
ATOM     40  C   UNL     1       3.793   0.837   0.000  0.00  0.00    +0.000 A 
ATOM     41  C   UNL     1       3.079   0.425   0.000  0.00  0.00    +0.000 A 
ATOM     42  C   UNL     1       3.793   1.662   0.000  0.00  0.00    +0.000 A 
ATOM     43  C   UNL     1       2.364   0.837   0.000  0.00  0.00    +0.000 A 
ATOM     44  C   UNL     1       3.079   2.075   0.000  0.00  0.00    +0.000 A 
ATOM     45  C   UNL     1       2.364   1.662   0.000  0.00  0.00    +0.000 A 
ENDBRANCH  37  40
ENDBRANCH  35  36
ENDBRANCH  33  35
ENDBRANCH  32  33
ENDBRANCH   8  32
TORSDOF 8
