REMARK  Name = 6442954
REMARK  10 active torsions:
REMARK  status: ('A' for Active; 'I' for Inactive)
REMARK    1  A    between atoms: O_1  and  C_18
REMARK    2  A    between atoms: O_1  and  C_20
REMARK    3  A    between atoms: O_5  and  C_25
REMARK    4  A    between atoms: O_5  and  C_30
REMARK    5  A    between atoms: O_10  and  C_28
REMARK    6  A    between atoms: O_10  and  C_33
REMARK    7  A    between atoms: C_26  and  C_28
REMARK    8  A    between atoms: C_31  and  C_35
REMARK    9  A    between atoms: C_33  and  C_38
REMARK   10  A    between atoms: C_46  and  C_48
REMARK                            x       y       z     vdW  Elec       q    Type
REMARK                         _______ _______ _______ _____ _____    ______ ____
ROOT
ATOM      1  O   UNL     1       7.809   0.177   0.000  0.00  0.00    +0.000 OA
ATOM      2  O   UNL     1       7.809  -2.298   0.000  0.00  0.00    +0.000 OA
ATOM      3  O   UNL     1       6.380  -1.473   0.000  0.00  0.00    +0.000 OA
ATOM      4  C   UNL     1       8.523  -1.061   0.000  0.00  0.00    +0.000 C 
ATOM      5  C   UNL     1       7.809  -1.473   0.000  0.00  0.00    +0.000 C 
ATOM      6  C   UNL     1       7.094  -1.061   0.000  0.00  0.00    +0.000 C 
ATOM      7  C   UNL     1       8.523  -0.236   0.000  0.00  0.00    +0.000 C 
ATOM      8  C   UNL     1       7.094  -0.236   0.000  0.00  0.00    +0.000 C 
ATOM      9  C   UNL     1       6.380   0.177   0.000  0.00  0.00    +0.000 C 
ENDROOT
BRANCH   4  10
ATOM     10  O   UNL     1       9.238  -1.473   0.000  0.00  0.00    +0.000 OA
BRANCH  10  15
ATOM     11  O   UNL     1       8.523  -2.711   0.000  0.00  0.00    +0.000 OA
ATOM     12  O   UNL     1      10.667  -2.298   0.000  0.00  0.00    +0.000 OA
ATOM     13  O   UNL     1      10.667  -3.948   0.000  0.00  0.00    +0.000 OA
ATOM     14  O   UNL     1       9.238  -4.773   0.000  0.00  0.00    +0.000 OA
ATOM     15  C   UNL     1       9.238  -2.298   0.000  0.00  0.00    +0.000 C 
ATOM     16  C   UNL     1       9.952  -2.711   0.000  0.00  0.00    +0.000 C 
ATOM     17  C   UNL     1       9.952  -3.536   0.000  0.00  0.00    +0.000 C 
ATOM     18  C   UNL     1       9.238  -3.948   0.000  0.00  0.00    +0.000 C 
ATOM     19  C   UNL     1       8.523  -3.536   0.000  0.00  0.00    +0.000 C 
BRANCH  19  20
ATOM     20  C   UNL     1       7.809  -3.948   0.000  0.00  0.00    +0.000 C 
BRANCH  20  21
ATOM     21  O   UNL     1       7.094  -3.536   0.000  0.00  0.00    +0.000 OA
BRANCH  21  23
ATOM     22  O   UNL     1       6.380  -4.773   0.000  0.00  0.00    +0.000 OA
ATOM     23  C   UNL     1       6.380  -3.948   0.000  0.00  0.00    +0.000 C 
BRANCH  23  24
ATOM     24  C   UNL     1       5.665  -3.536   0.000  0.00  0.00    +0.000 C 
ATOM     25  C   UNL     1       4.951  -3.948   0.000  0.00  0.00    +0.000 C 
BRANCH  25  27
ATOM     26  O   UNL     1       2.093  -2.298   0.000  0.00  0.00    +0.000 OA
ATOM     27  C   UNL     1       4.236  -3.536   0.000  0.00  0.00    +0.000 A 
ATOM     28  C   UNL     1       4.236  -2.711   0.000  0.00  0.00    +0.000 A 
ATOM     29  C   UNL     1       3.522  -3.948   0.000  0.00  0.00    +0.000 A 
ATOM     30  C   UNL     1       3.522  -2.298   0.000  0.00  0.00    +0.000 A 
ATOM     31  C   UNL     1       2.808  -3.536   0.000  0.00  0.00    +0.000 A 
ATOM     32  C   UNL     1       2.808  -2.711   0.000  0.00  0.00    +0.000 A 
ENDBRANCH  25  27
ENDBRANCH  23  24
ENDBRANCH  21  23
ENDBRANCH  20  21
ENDBRANCH  19  20
ENDBRANCH  10  15
ENDBRANCH   4  10
BRANCH   7  33
ATOM     33  O   UNL     1       9.238   0.177   0.000  0.00  0.00    +0.000 OA
BRANCH  33  38
ATOM     34  O   UNL     1       9.952   2.239   0.000  0.00  0.00    +0.000 OA
ATOM     35  O   UNL     1       7.809   1.002   0.000  0.00  0.00    +0.000 OA
ATOM     36  O   UNL     1       7.063   2.237   0.000  0.00  0.00    +0.000 OA
ATOM     37  O   UNL     1       8.513   4.771   0.000  0.00  0.00    +0.000 OA
ATOM     38  C   UNL     1       9.238   1.002   0.000  0.00  0.00    +0.000 A 
ATOM     39  C   UNL     1       9.952   1.414   0.000  0.00  0.00    +0.000 A 
ATOM     40  C   UNL     1       8.523   1.414   0.000  0.00  0.00    +0.000 A 
ATOM     41  C   UNL     1       8.523   2.239   0.000  0.00  0.00    +0.000 A 
ATOM     42  C   UNL     1       9.238   2.652   0.000  0.00  0.00    +0.000 A 
ATOM     43  C   UNL     1       7.772   2.658   0.000  0.00  0.00    +0.000 A 
ATOM     44  C   UNL     1       9.251   3.511   0.000  0.00  0.00    +0.000 A 
ATOM     45  C   UNL     1       7.766   3.517   0.000  0.00  0.00    +0.000 A 
ATOM     46  C   UNL     1       8.510   3.946   0.000  0.00  0.00    +0.000 A 
BRANCH  39  48
ATOM     47  O   UNL     1      12.810  -0.236   0.000  0.00  0.00    +0.000 OA
ATOM     48  C   UNL     1      10.667   1.002   0.000  0.00  0.00    +0.000 A 
ATOM     49  C   UNL     1      10.667   0.177   0.000  0.00  0.00    +0.000 A 
ATOM     50  C   UNL     1      11.381   1.414   0.000  0.00  0.00    +0.000 A 
ATOM     51  C   UNL     1      11.381  -0.236   0.000  0.00  0.00    +0.000 A 
ATOM     52  C   UNL     1      12.096   1.002   0.000  0.00  0.00    +0.000 A 
ATOM     53  C   UNL     1      12.096   0.177   0.000  0.00  0.00    +0.000 A 
ENDBRANCH  39  48
ENDBRANCH  33  38
ENDBRANCH   7  33
TORSDOF 10
