REMARK  Name = 131752542
REMARK  14 active torsions:
REMARK  status: ('A' for Active; 'I' for Inactive)
REMARK    1  A    between atoms: O_4  and  C_22
REMARK    2  A    between atoms: O_4  and  C_24
REMARK    3  A    between atoms: O_6  and  C_23
REMARK    4  A    between atoms: O_6  and  C_26
REMARK    5  A    between atoms: O_9  and  C_28
REMARK    6  A    between atoms: O_10  and  C_30
REMARK    7  A    between atoms: O_10  and  C_43
REMARK    8  A    between atoms: O_12  and  C_41
REMARK    9  A    between atoms: O_15  and  C_44
REMARK   10  A    between atoms: C_20  and  C_23
REMARK   11  A    between atoms: C_25  and  C_26
REMARK   12  A    between atoms: C_25  and  C_27
REMARK   13  A    between atoms: C_27  and  C_30
REMARK   14  A    between atoms: C_33  and  C_35
REMARK                            x       y       z     vdW  Elec       q    Type
REMARK                         _______ _______ _______ _____ _____    ______ ____
ROOT
ATOM      1  C   UNL     1      10.224  -1.548   0.000  0.00  0.00    +0.000 A 
ATOM      2  C   UNL     1       9.509  -1.135   0.000  0.00  0.00    +0.000 A 
ATOM      3  C   UNL     1      10.938  -1.135   0.000  0.00  0.00    +0.000 A 
ATOM      4  C   UNL     1       9.509  -0.310   0.000  0.00  0.00    +0.000 A 
ATOM      5  C   UNL     1      10.224   0.102   0.000  0.00  0.00    +0.000 A 
ATOM      6  C   UNL     1      10.938  -0.310   0.000  0.00  0.00    +0.000 A 
ENDROOT
BRANCH   5  11
ATOM      7  O   UNL     1      10.966   1.360   0.000  0.00  0.00    +0.000 OA
ATOM      8  O   UNL     1       8.783   2.642   0.000  0.00  0.00    +0.000 OA
ATOM      9  O   UNL     1       9.534   3.874   0.000  0.00  0.00    +0.000 OA
ATOM     10  O   UNL     1      12.392   3.863   0.000  0.00  0.00    +0.000 OA
ATOM     11  C   UNL     1      10.224   0.927   0.000  0.00  0.00    +0.000 A 
ATOM     12  C   UNL     1       9.481   1.360   0.000  0.00  0.00    +0.000 A 
ATOM     13  C   UNL     1      10.956   2.219   0.000  0.00  0.00    +0.000 A 
ATOM     14  C   UNL     1      10.243   2.634   0.000  0.00  0.00    +0.000 A 
ATOM     15  C   UNL     1       9.491   2.219   0.000  0.00  0.00    +0.000 A 
ATOM     16  C   UNL     1      11.672   2.629   0.000  0.00  0.00    +0.000 A 
ATOM     17  C   UNL     1      10.247   3.459   0.000  0.00  0.00    +0.000 A 
ATOM     18  C   UNL     1      10.963   3.869   0.000  0.00  0.00    +0.000 A 
ATOM     19  C   UNL     1      11.675   3.454   0.000  0.00  0.00    +0.000 A 
BRANCH  16  20
ATOM     20  O   UNL     1      12.385   2.213   0.000  0.00  0.00    +0.000 OA
ATOM     21  C   UNL     1      13.101   2.623   0.000  0.00  0.00    +0.000 C 
ENDBRANCH  16  20
BRANCH  18  22
ATOM     22  O   UNL     1      10.966   4.694   0.000  0.00  0.00    +0.000 OA
ATOM     23  C   UNL     1      11.682   5.104   0.000  0.00  0.00    +0.000 C 
ENDBRANCH  18  22
ENDBRANCH   5  11
BRANCH   2  24
ATOM     24  O   UNL     1       8.795  -1.548   0.000  0.00  0.00    +0.000 OA
ATOM     25  C   UNL     1       8.080  -1.135   0.000  0.00  0.00    +0.000 C 
ENDBRANCH   2  24
BRANCH   1  26
ATOM     26  O   UNL     1      10.224  -2.373   0.000  0.00  0.00    +0.000 OA
BRANCH  26  35
ATOM     27  O   UNL     1       8.795  -2.373   0.000  0.00  0.00    +0.000 OA
ATOM     28  O   UNL     1       7.366  -4.023   0.000  0.00  0.00    +0.000 OA
ATOM     29  O   UNL     1       8.795  -4.848   0.000  0.00  0.00    +0.000 OA
ATOM     30  O   UNL     1      10.224  -4.023   0.000  0.00  0.00    +0.000 OA
ATOM     31  C   UNL     1       8.080  -3.610   0.000  0.00  0.00    +0.000 C 
ATOM     32  C   UNL     1       8.795  -4.023   0.000  0.00  0.00    +0.000 C 
ATOM     33  C   UNL     1       8.080  -2.785   0.000  0.00  0.00    +0.000 C 
ATOM     34  C   UNL     1       9.509  -3.610   0.000  0.00  0.00    +0.000 C 
ATOM     35  C   UNL     1       9.509  -2.785   0.000  0.00  0.00    +0.000 C 
BRANCH  33  36
ATOM     36  C   UNL     1       7.366  -2.373   0.000  0.00  0.00    +0.000 C 
BRANCH  36  37
ATOM     37  O   UNL     1       6.651  -2.785   0.000  0.00  0.00    +0.000 OA
BRANCH  37  39
ATOM     38  O   UNL     1       5.937  -1.548   0.000  0.00  0.00    +0.000 OA
ATOM     39  C   UNL     1       5.937  -2.373   0.000  0.00  0.00    +0.000 C 
BRANCH  39  40
ATOM     40  C   UNL     1       5.222  -2.785   0.000  0.00  0.00    +0.000 C 
BRANCH  40  42
ATOM     41  O   UNL     1       4.095  -3.087   0.000  0.00  0.00    +0.000 OA
ATOM     42  C   UNL     1       4.508  -2.373   0.000  0.00  0.00    +0.000 C 
ATOM     43  C   UNL     1       4.920  -1.658   0.000  0.00  0.00    +0.000 C 
BRANCH  42  44
ATOM     44  C   UNL     1       3.793  -1.960   0.000  0.00  0.00    +0.000 C 
BRANCH  44  45
ATOM     45  O   UNL     1       3.079  -2.373   0.000  0.00  0.00    +0.000 OA
BRANCH  45  47
ATOM     46  O   UNL     1       1.650  -2.373   0.000  0.00  0.00    +0.000 OA
ATOM     47  C   UNL     1       2.365  -1.960   0.000  0.00  0.00    +0.000 C 
ENDBRANCH  45  47
ENDBRANCH  44  45
ENDBRANCH  42  44
ENDBRANCH  40  42
ENDBRANCH  39  40
ENDBRANCH  37  39
ENDBRANCH  36  37
ENDBRANCH  33  36
ENDBRANCH  26  35
ENDBRANCH   1  26
TORSDOF 14
