REMARK  Name = 44259691
REMARK  6 active torsions:
REMARK  status: ('A' for Active; 'I' for Inactive)
REMARK    1  A    between atoms: O_2  and  C_12
REMARK    2  A    between atoms: O_3  and  C_18
REMARK    3  A    between atoms: O_3  and  C_23
REMARK    4  A    between atoms: O_4  and  C_17
REMARK    5  A    between atoms: C_8  and  C_10
REMARK    6  A    between atoms: C_23  and  C_24
REMARK                            x       y       z     vdW  Elec       q    Type
REMARK                         _______ _______ _______ _____ _____    ______ ____
ROOT
ATOM      1  O   UNL     1       5.006  -0.145   0.000  0.00  0.00    +0.000 OA
ATOM      2  O   UNL     1       3.564   2.359   0.000  0.00  0.00    +0.000 OA
ATOM      3  O   UNL     1       5.006   2.330   0.000  0.00  0.00    +0.000 OA
ATOM      4  O   UNL     1       2.094  -0.165   0.000  0.00  0.00    +0.000 OA
ATOM      5  C   UNL     1       5.721   0.268   0.000  0.00  0.00    +0.000 A 
ATOM      6  C   UNL     1       4.292   1.093   0.000  0.00  0.00    +0.000 A 
ATOM      7  C   UNL     1       4.292   0.268   0.000  0.00  0.00    +0.000 A 
ATOM      8  C   UNL     1       5.721   1.093   0.000  0.00  0.00    +0.000 A 
ATOM      9  C   UNL     1       5.006   1.505   0.000  0.00  0.00    +0.000 A 
ATOM     10  C   UNL     1       3.554   1.534   0.000  0.00  0.00    +0.000 A 
ATOM     11  C   UNL     1       3.554  -0.173   0.000  0.00  0.00    +0.000 A 
ATOM     12  C   UNL     1       2.807   0.251   0.000  0.00  0.00    +0.000 A 
ATOM     13  C   UNL     1       2.807   1.110   0.000  0.00  0.00    +0.000 A 
ENDROOT
BRANCH   5  14
ATOM     14  C   UNL     1       6.435  -0.145   0.000  0.00  0.00    +0.000 A 
ATOM     15  C   UNL     1       6.435  -0.970   0.000  0.00  0.00    +0.000 A 
ATOM     16  C   UNL     1       7.150   0.268   0.000  0.00  0.00    +0.000 A 
ATOM     17  C   UNL     1       7.150  -1.382   0.000  0.00  0.00    +0.000 A 
ATOM     18  C   UNL     1       7.864  -0.970   0.000  0.00  0.00    +0.000 A 
ATOM     19  C   UNL     1       7.864  -0.145   0.000  0.00  0.00    +0.000 A 
BRANCH  17  20
ATOM     20  O   UNL     1       7.150  -2.207   0.000  0.00  0.00    +0.000 OA
ATOM     21  C   UNL     1       6.435  -2.620   0.000  0.00  0.00    +0.000 C 
ENDBRANCH  17  20
BRANCH  18  22
ATOM     22  O   UNL     1       8.579  -1.382   0.000  0.00  0.00    +0.000 OA
BRANCH  22  23
ATOM     23  C   UNL     1       9.293  -0.970   0.000  0.00  0.00    +0.000 C 
BRANCH  23  24
ATOM     24  C   UNL     1      10.008  -1.382   0.000  0.00  0.00    +0.000 C 
ATOM     25  C   UNL     1      10.722  -0.970   0.000  0.00  0.00    +0.000 C 
ATOM     26  C   UNL     1      11.437  -1.382   0.000  0.00  0.00    +0.000 C 
ATOM     27  C   UNL     1      10.722  -0.145   0.000  0.00  0.00    +0.000 C 
ENDBRANCH  23  24
ENDBRANCH  22  23
ENDBRANCH  18  22
ENDBRANCH   5  14
BRANCH   8  28
ATOM     28  O   UNL     1       6.435   1.505   0.000  0.00  0.00    +0.000 OA
ATOM     29  C   UNL     1       6.435   2.330   0.000  0.00  0.00    +0.000 C 
ENDBRANCH   8  28
TORSDOF 6
