REMARK  Name = 44259699
REMARK  6 active torsions:
REMARK  status: ('A' for Active; 'I' for Inactive)
REMARK    1  A    between atoms: O_2  and  C_16
REMARK    2  A    between atoms: O_2  and  C_23
REMARK    3  A    between atoms: O_3  and  C_11
REMARK    4  A    between atoms: O_6  and  C_22
REMARK    5  A    between atoms: C_10  and  C_13
REMARK    6  A    between atoms: C_23  and  C_24
REMARK                            x       y       z     vdW  Elec       q    Type
REMARK                         _______ _______ _______ _____ _____    ______ ____
ROOT
ATOM      1  O   UNL     1       7.420  -0.223   0.000  0.00  0.00    +0.000 OA
ATOM      2  O   UNL     1       5.978   2.280   0.000  0.00  0.00    +0.000 OA
ATOM      3  O   UNL     1       7.420   2.252   0.000  0.00  0.00    +0.000 OA
ATOM      4  C   UNL     1       6.706   1.014   0.000  0.00  0.00    +0.000 A 
ATOM      5  C   UNL     1       6.706   0.189   0.000  0.00  0.00    +0.000 A 
ATOM      6  C   UNL     1       8.135   0.189   0.000  0.00  0.00    +0.000 A 
ATOM      7  C   UNL     1       8.135   1.014   0.000  0.00  0.00    +0.000 A 
ATOM      8  C   UNL     1       7.420   1.427   0.000  0.00  0.00    +0.000 A 
ATOM      9  C   UNL     1       5.968   1.456   0.000  0.00  0.00    +0.000 A 
ATOM     10  C   UNL     1       5.968  -0.252   0.000  0.00  0.00    +0.000 A 
ATOM     11  C   UNL     1       5.221   0.172   0.000  0.00  0.00    +0.000 A 
ATOM     12  C   UNL     1       5.221   1.032   0.000  0.00  0.00    +0.000 A 
ENDROOT
BRANCH   6  14
ATOM     13  O   UNL     1       9.564  -2.286   0.000  0.00  0.00    +0.000 OA
ATOM     14  C   UNL     1       8.849  -0.223   0.000  0.00  0.00    +0.000 A 
ATOM     15  C   UNL     1       8.849  -1.048   0.000  0.00  0.00    +0.000 A 
ATOM     16  C   UNL     1       9.564   0.189   0.000  0.00  0.00    +0.000 A 
ATOM     17  C   UNL     1       9.564  -1.461   0.000  0.00  0.00    +0.000 A 
ATOM     18  C   UNL     1      10.278  -0.223   0.000  0.00  0.00    +0.000 A 
ATOM     19  C   UNL     1      10.278  -1.048   0.000  0.00  0.00    +0.000 A 
BRANCH  19  20
ATOM     20  O   UNL     1      10.992  -1.461   0.000  0.00  0.00    +0.000 OA
ATOM     21  C   UNL     1      11.707  -1.048   0.000  0.00  0.00    +0.000 C 
ENDBRANCH  19  20
ENDBRANCH   6  14
BRANCH   7  22
ATOM     22  O   UNL     1       8.849   1.427   0.000  0.00  0.00    +0.000 OA
ATOM     23  C   UNL     1       8.849   2.252   0.000  0.00  0.00    +0.000 C 
ENDBRANCH   7  22
BRANCH  11  24
ATOM     24  O   UNL     1       4.508  -0.243   0.000  0.00  0.00    +0.000 OA
BRANCH  24  25
ATOM     25  C   UNL     1       3.792   0.167   0.000  0.00  0.00    +0.000 C 
BRANCH  25  26
ATOM     26  C   UNL     1       3.079  -0.248   0.000  0.00  0.00    +0.000 C 
ATOM     27  C   UNL     1       2.363   0.161   0.000  0.00  0.00    +0.000 C 
ATOM     28  C   UNL     1       1.650  -0.254   0.000  0.00  0.00    +0.000 C 
ATOM     29  C   UNL     1       2.360   0.986   0.000  0.00  0.00    +0.000 C 
ENDBRANCH  25  26
ENDBRANCH  24  25
ENDBRANCH  11  24
TORSDOF 6
