REMARK  Name = 44257619
REMARK  3 active torsions:
REMARK  status: ('A' for Active; 'I' for Inactive)
REMARK    1  A    between atoms: O_4  and  C_16
REMARK    2  A    between atoms: C_8  and  C_13
REMARK    3  A    between atoms: C_21  and  C_24
REMARK                            x       y       z     vdW  Elec       q    Type
REMARK                         _______ _______ _______ _____ _____    ______ ____
ROOT
ATOM      1  O   UNL     1       5.665   1.121   0.000  0.00  0.00    +0.000 OA
ATOM      2  O   UNL     1       7.117  -1.383   0.000  0.00  0.00    +0.000 OA
ATOM      3  O   UNL     1       7.108   1.149   0.000  0.00  0.00    +0.000 OA
ATOM      4  C   UNL     1       4.951  -0.117   0.000  0.00  0.00    +0.000 A 
ATOM      5  C   UNL     1       5.665   0.296   0.000  0.00  0.00    +0.000 A 
ATOM      6  C   UNL     1       4.951  -0.942   0.000  0.00  0.00    +0.000 A 
ATOM      7  C   UNL     1       6.380  -0.117   0.000  0.00  0.00    +0.000 A 
ATOM      8  C   UNL     1       5.665  -1.354   0.000  0.00  0.00    +0.000 A 
ATOM      9  C   UNL     1       6.380  -0.942   0.000  0.00  0.00    +0.000 A 
ATOM     10  C   UNL     1       7.117   0.325   0.000  0.00  0.00    +0.000 A 
ATOM     11  C   UNL     1       7.865  -0.959   0.000  0.00  0.00    +0.000 A 
ATOM     12  C   UNL     1       7.865  -0.099   0.000  0.00  0.00    +0.000 A 
ENDROOT
BRANCH   4  16
ATOM     13  O   UNL     1       3.522  -0.117   0.000  0.00  0.00    +0.000 OA
ATOM     14  O   UNL     1       3.522   2.358   0.000  0.00  0.00    +0.000 OA
ATOM     15  O   UNL     1       2.093   1.533   0.000  0.00  0.00    +0.000 OA
ATOM     16  C   UNL     1       4.236   0.296   0.000  0.00  0.00    +0.000 C 
ATOM     17  C   UNL     1       3.522   1.533   0.000  0.00  0.00    +0.000 C 
ATOM     18  C   UNL     1       4.236   1.121   0.000  0.00  0.00    +0.000 C 
ATOM     19  C   UNL     1       2.808   1.121   0.000  0.00  0.00    +0.000 C 
ATOM     20  C   UNL     1       2.808   0.296   0.000  0.00  0.00    +0.000 C 
ATOM     21  C   UNL     1       2.093  -0.117   0.000  0.00  0.00    +0.000 C 
ENDBRANCH   4  16
BRANCH  11  22
ATOM     22  C   UNL     1       8.578  -1.374   0.000  0.00  0.00    +0.000 A 
ATOM     23  C   UNL     1       9.294  -0.964   0.000  0.00  0.00    +0.000 A 
ATOM     24  C   UNL     1       8.575  -2.199   0.000  0.00  0.00    +0.000 A 
ATOM     25  C   UNL     1      10.007  -1.379   0.000  0.00  0.00    +0.000 A 
ATOM     26  C   UNL     1       9.287  -2.614   0.000  0.00  0.00    +0.000 A 
ATOM     27  C   UNL     1      10.004  -2.204   0.000  0.00  0.00    +0.000 A 
ENDBRANCH  11  22
BRANCH   6  28
ATOM     28  O   UNL     1       4.236  -1.354   0.000  0.00  0.00    +0.000 OA
ATOM     29  C   UNL     1       4.236  -2.179   0.000  0.00  0.00    +0.000 C 
ENDBRANCH   6  28
TORSDOF 3
