REMARK  Name = 44257201
REMARK  3 active torsions:
REMARK  status: ('A' for Active; 'I' for Inactive)
REMARK    1  A    between atoms: O_2  and  C_12
REMARK    2  A    between atoms: O_3  and  C_13
REMARK    3  A    between atoms: C_5  and  C_10
REMARK                            x       y       z     vdW  Elec       q    Type
REMARK                         _______ _______ _______ _____ _____    ______ ____
ROOT
ATOM      1  O   UNL     1       5.245  -0.840   0.000  0.00  0.00    +0.000 OA
ATOM      2  C   UNL     1       5.993  -0.415   0.000  0.00  0.00    +0.000 C 
ATOM      3  C   UNL     1       5.993   0.444   0.000  0.00  0.00    +0.000 C 
ATOM      4  C   UNL     1       5.245   0.868   0.000  0.00  0.00    +0.000 C 
ATOM      5  C   UNL     1       4.508   0.427   0.000  0.00  0.00    +0.000 A 
ATOM      6  C   UNL     1       4.508  -0.398   0.000  0.00  0.00    +0.000 A 
ATOM      7  C   UNL     1       3.793  -0.811   0.000  0.00  0.00    +0.000 A 
ATOM      8  C   UNL     1       3.793   0.839   0.000  0.00  0.00    +0.000 A 
ATOM      9  C   UNL     1       3.079  -0.398   0.000  0.00  0.00    +0.000 A 
ATOM     10  C   UNL     1       3.079   0.427   0.000  0.00  0.00    +0.000 A 
ATOM     11  C   UNL     1       3.793  -1.636   0.000  0.00  0.00    +0.000 C 
ENDROOT
BRANCH   2  13
ATOM     12  O   UNL     1       8.844  -2.077   0.000  0.00  0.00    +0.000 OA
ATOM     13  C   UNL     1       6.706  -0.831   0.000  0.00  0.00    +0.000 A 
ATOM     14  C   UNL     1       6.703  -1.656   0.000  0.00  0.00    +0.000 A 
ATOM     15  C   UNL     1       7.422  -0.421   0.000  0.00  0.00    +0.000 A 
ATOM     16  C   UNL     1       7.415  -2.071   0.000  0.00  0.00    +0.000 A 
ATOM     17  C   UNL     1       8.135  -0.836   0.000  0.00  0.00    +0.000 A 
ATOM     18  C   UNL     1       8.132  -1.661   0.000  0.00  0.00    +0.000 A 
ENDBRANCH   2  13
BRANCH   8  19
ATOM     19  O   UNL     1       3.793   1.664   0.000  0.00  0.00    +0.000 OA
ATOM     20  C   UNL     1       3.079   2.077   0.000  0.00  0.00    +0.000 C 
ENDBRANCH   8  19
BRANCH   9  21
ATOM     21  O   UNL     1       2.364  -0.811   0.000  0.00  0.00    +0.000 OA
ATOM     22  C   UNL     1       1.650  -0.398   0.000  0.00  0.00    +0.000 C 
ENDBRANCH   9  21
TORSDOF 3
