REMARK  Name = 44259766
REMARK  6 active torsions:
REMARK  status: ('A' for Active; 'I' for Inactive)
REMARK    1  A    between atoms: O_2  and  C_11
REMARK    2  A    between atoms: O_3  and  C_16
REMARK    3  A    between atoms: O_5  and  C_20
REMARK    4  A    between atoms: O_5  and  C_23
REMARK    5  A    between atoms: C_10  and  C_13
REMARK    6  A    between atoms: C_23  and  C_25
REMARK                            x       y       z     vdW  Elec       q    Type
REMARK                         _______ _______ _______ _____ _____    ______ ____
ROOT
ATOM      1  O   UNL     1       5.278   0.474   0.000  0.00  0.00    +0.000 OA
ATOM      2  O   UNL     1       3.836   2.978   0.000  0.00  0.00    +0.000 OA
ATOM      3  O   UNL     1       5.278   2.949   0.000  0.00  0.00    +0.000 OA
ATOM      4  O   UNL     1       2.366   0.454   0.000  0.00  0.00    +0.000 OA
ATOM      5  C   UNL     1       4.564   1.712   0.000  0.00  0.00    +0.000 A 
ATOM      6  C   UNL     1       4.564   0.886   0.000  0.00  0.00    +0.000 A 
ATOM      7  C   UNL     1       5.993   0.886   0.000  0.00  0.00    +0.000 A 
ATOM      8  C   UNL     1       5.993   1.712   0.000  0.00  0.00    +0.000 A 
ATOM      9  C   UNL     1       5.278   2.124   0.000  0.00  0.00    +0.000 A 
ATOM     10  C   UNL     1       3.826   2.153   0.000  0.00  0.00    +0.000 A 
ATOM     11  C   UNL     1       3.826   0.445   0.000  0.00  0.00    +0.000 A 
ATOM     12  C   UNL     1       3.079   1.729   0.000  0.00  0.00    +0.000 A 
ATOM     13  C   UNL     1       3.079   0.869   0.000  0.00  0.00    +0.000 A 
ENDROOT
BRANCH   7  14
ATOM     14  C   UNL     1       6.707   0.474   0.000  0.00  0.00    +0.000 A 
ATOM     15  C   UNL     1       7.422   0.886   0.000  0.00  0.00    +0.000 A 
ATOM     16  C   UNL     1       6.707  -0.351   0.000  0.00  0.00    +0.000 A 
ATOM     17  C   UNL     1       8.136  -0.351   0.000  0.00  0.00    +0.000 A 
ATOM     18  C   UNL     1       8.136   0.474   0.000  0.00  0.00    +0.000 A 
ATOM     19  C   UNL     1       7.422  -0.763   0.000  0.00  0.00    +0.000 A 
BRANCH  17  20
ATOM     20  O   UNL     1       8.851  -0.763   0.000  0.00  0.00    +0.000 OA
BRANCH  20  21
ATOM     21  C   UNL     1       8.851  -1.589   0.000  0.00  0.00    +0.000 C 
BRANCH  21  22
ATOM     22  C   UNL     1       9.565  -2.001   0.000  0.00  0.00    +0.000 C 
ATOM     23  C   UNL     1       9.565  -2.826   0.000  0.00  0.00    +0.000 C 
ATOM     24  C   UNL     1      10.280  -3.239   0.000  0.00  0.00    +0.000 C 
ATOM     25  C   UNL     1       8.851  -3.239   0.000  0.00  0.00    +0.000 C 
ENDBRANCH  21  22
ENDBRANCH  20  21
ENDBRANCH  17  20
ENDBRANCH   7  14
BRANCH   8  26
ATOM     26  O   UNL     1       6.707   2.124   0.000  0.00  0.00    +0.000 OA
ATOM     27  C   UNL     1       6.707   2.949   0.000  0.00  0.00    +0.000 C 
ENDBRANCH   8  26
BRANCH  12  28
ATOM     28  O   UNL     1       2.366   2.144   0.000  0.00  0.00    +0.000 OA
ATOM     29  C   UNL     1       1.650   1.734   0.000  0.00  0.00    +0.000 C 
ENDBRANCH  12  28
TORSDOF 6
