REMARK  Name = 44259907
REMARK  6 active torsions:
REMARK  status: ('A' for Active; 'I' for Inactive)
REMARK    1  A    between atoms: O_2  and  C_10
REMARK    2  A    between atoms: O_2  and  C_13
REMARK    3  A    between atoms: O_4  and  C_14
REMARK    4  A    between atoms: O_6  and  C_21
REMARK    5  A    between atoms: C_9  and  C_10
REMARK    6  A    between atoms: C_20  and  C_22
REMARK                            x       y       z     vdW  Elec       q    Type
REMARK                         _______ _______ _______ _____ _____    ______ ____
ROOT
ATOM      1  O   UNL     1       7.114  -0.745   0.000  0.00  0.00    +0.000 OA
ATOM      2  O   UNL     1       5.671   1.758   0.000  0.00  0.00    +0.000 OA
ATOM      3  O   UNL     1       7.114   1.730   0.000  0.00  0.00    +0.000 OA
ATOM      4  C   UNL     1       4.914  -0.350   0.000  0.00  0.00    +0.000 A 
ATOM      5  C   UNL     1       5.662  -0.774   0.000  0.00  0.00    +0.000 A 
ATOM      6  C   UNL     1       4.914   0.510   0.000  0.00  0.00    +0.000 A 
ATOM      7  C   UNL     1       6.399  -0.333   0.000  0.00  0.00    +0.000 A 
ATOM      8  C   UNL     1       6.399   0.492   0.000  0.00  0.00    +0.000 A 
ATOM      9  C   UNL     1       5.662   0.934   0.000  0.00  0.00    +0.000 A 
ATOM     10  C   UNL     1       7.114   0.905   0.000  0.00  0.00    +0.000 A 
ATOM     11  C   UNL     1       7.828  -0.333   0.000  0.00  0.00    +0.000 A 
ATOM     12  C   UNL     1       7.828   0.492   0.000  0.00  0.00    +0.000 A 
ENDROOT
BRANCH  11  13
ATOM     13  C   UNL     1       8.543  -0.745   0.000  0.00  0.00    +0.000 A 
ATOM     14  C   UNL     1       9.257  -0.333   0.000  0.00  0.00    +0.000 A 
ATOM     15  C   UNL     1       8.543  -1.570   0.000  0.00  0.00    +0.000 A 
ATOM     16  C   UNL     1       9.972  -0.745   0.000  0.00  0.00    +0.000 A 
ATOM     17  C   UNL     1       9.257  -1.983   0.000  0.00  0.00    +0.000 A 
ATOM     18  C   UNL     1       9.972  -1.570   0.000  0.00  0.00    +0.000 A 
ENDBRANCH  11  13
BRANCH   5  19
ATOM     19  O   UNL     1       5.671  -1.599   0.000  0.00  0.00    +0.000 OA
ATOM     20  C   UNL     1       4.962  -2.019   0.000  0.00  0.00    +0.000 C 
ENDBRANCH   5  19
BRANCH  12  21
ATOM     21  O   UNL     1       8.543   0.905   0.000  0.00  0.00    +0.000 OA
ATOM     22  C   UNL     1       8.543   1.730   0.000  0.00  0.00    +0.000 C 
ENDBRANCH  12  21
BRANCH   4  23
ATOM     23  O   UNL     1       4.202  -0.765   0.000  0.00  0.00    +0.000 OA
BRANCH  23  24
ATOM     24  C   UNL     1       3.486  -0.355   0.000  0.00  0.00    +0.000 C 
BRANCH  24  27
ATOM     25  O   UNL     1       1.948  -0.774   0.000  0.00  0.00    +0.000 OA
ATOM     26  C   UNL     1       2.363  -1.487   0.000  0.00  0.00    +0.000 C 
ATOM     27  C   UNL     1       2.773  -0.770   0.000  0.00  0.00    +0.000 C 
ATOM     28  C   UNL     1       1.650  -1.902   0.000  0.00  0.00    +0.000 C 
ATOM     29  C   UNL     1       3.079  -1.896   0.000  0.00  0.00    +0.000 C 
ENDBRANCH  24  27
ENDBRANCH  23  24
ENDBRANCH   4  23
TORSDOF 6
