REMARK  Name = 188424
REMARK  2 active torsions:
REMARK  status: ('A' for Active; 'I' for Inactive)
REMARK    1  A    between atoms: O_2  and  C_12
REMARK    2  A    between atoms: C_6  and  C_9
REMARK                            x       y       z     vdW  Elec       q    Type
REMARK                         _______ _______ _______ _____ _____    ______ ____
ROOT
ATOM      1  O   UNL     1       5.006  -0.843   0.000  0.00  0.00    +0.000 OA
ATOM      2  O   UNL     1       5.006   1.632   0.000  0.00  0.00    +0.000 OA
ATOM      3  O   UNL     1       2.094  -0.863   0.000  0.00  0.00    +0.000 OA
ATOM      4  C   UNL     1       5.721  -0.431   0.000  0.00  0.00    +0.000 C 
ATOM      5  C   UNL     1       5.721   0.394   0.000  0.00  0.00    +0.000 C 
ATOM      6  C   UNL     1       4.292   0.394   0.000  0.00  0.00    +0.000 A 
ATOM      7  C   UNL     1       5.006   0.807   0.000  0.00  0.00    +0.000 C 
ATOM      8  C   UNL     1       4.292  -0.431   0.000  0.00  0.00    +0.000 A 
ATOM      9  C   UNL     1       3.554   0.835   0.000  0.00  0.00    +0.000 A 
ATOM     10  C   UNL     1       3.554  -0.872   0.000  0.00  0.00    +0.000 A 
ATOM     11  C   UNL     1       2.807   0.411   0.000  0.00  0.00    +0.000 A 
ATOM     12  C   UNL     1       2.807  -0.448   0.000  0.00  0.00    +0.000 A 
ENDROOT
BRANCH   4  14
ATOM     13  O   UNL     1       8.579  -2.081   0.000  0.00  0.00    +0.000 OA
ATOM     14  C   UNL     1       6.435  -0.843   0.000  0.00  0.00    +0.000 A 
ATOM     15  C   UNL     1       7.150  -0.431   0.000  0.00  0.00    +0.000 A 
ATOM     16  C   UNL     1       6.435  -1.668   0.000  0.00  0.00    +0.000 A 
ATOM     17  C   UNL     1       7.864  -0.843   0.000  0.00  0.00    +0.000 A 
ATOM     18  C   UNL     1       7.150  -2.081   0.000  0.00  0.00    +0.000 A 
ATOM     19  C   UNL     1       7.864  -1.668   0.000  0.00  0.00    +0.000 A 
ENDBRANCH   4  14
BRANCH   9  20
ATOM     20  O   UNL     1       3.564   1.660   0.000  0.00  0.00    +0.000 OA
ATOM     21  C   UNL     1       2.854   2.081   0.000  0.00  0.00    +0.000 C 
ENDBRANCH   9  20
TORSDOF 2
