REMARK  Name = 42607942
REMARK  5 active torsions:
REMARK  status: ('A' for Active; 'I' for Inactive)
REMARK    1  A    between atoms: O_2  and  C_15
REMARK    2  A    between atoms: O_2  and  C_17
REMARK    3  A    between atoms: O_10  and  C_33
REMARK    4  A    between atoms: C_14  and  C_16
REMARK    5  A    between atoms: C_21  and  C_26
REMARK                            x       y       z     vdW  Elec       q    Type
REMARK                         _______ _______ _______ _____ _____    ______ ____
ROOT
ATOM      1  O   UNL     1       7.131   0.944   0.000  0.00  0.00    +0.000 OA
ATOM      2  O   UNL     1       4.236   0.938   0.000  0.00  0.00    +0.000 OA
ATOM      3  O   UNL     1       4.933   2.202   0.000  0.00  0.00    +0.000 OA
ATOM      4  C   UNL     1       5.665  -0.712   0.000  0.00  0.00    +0.000 A 
ATOM      5  C   UNL     1       6.380  -0.299   0.000  0.00  0.00    +0.000 A 
ATOM      6  C   UNL     1       6.380   0.526   0.000  0.00  0.00    +0.000 A 
ATOM      7  C   UNL     1       5.665   0.938   0.000  0.00  0.00    +0.000 A 
ATOM      8  C   UNL     1       7.137   1.803   0.000  0.00  0.00    +0.000 C 
ATOM      9  C   UNL     1       4.951  -0.299   0.000  0.00  0.00    +0.000 A 
ATOM     10  C   UNL     1       6.393   2.233   0.000  0.00  0.00    +0.000 C 
ATOM     11  C   UNL     1       4.951   0.526   0.000  0.00  0.00    +0.000 A 
ATOM     12  C   UNL     1       5.652   1.798   0.000  0.00  0.00    +0.000 C 
ATOM     13  C   UNL     1       7.094  -0.712   0.000  0.00  0.00    +0.000 C 
ATOM     14  C   UNL     1       4.236  -0.712   0.000  0.00  0.00    +0.000 C 
ENDROOT
BRANCH   8  15
ATOM     15  C   UNL     1       7.853   2.213   0.000  0.00  0.00    +0.000 A 
ATOM     16  C   UNL     1       7.856   3.038   0.000  0.00  0.00    +0.000 A 
ATOM     17  C   UNL     1       8.566   1.798   0.000  0.00  0.00    +0.000 A 
ATOM     18  C   UNL     1       8.572   3.448   0.000  0.00  0.00    +0.000 A 
ATOM     19  C   UNL     1       9.282   2.208   0.000  0.00  0.00    +0.000 A 
ATOM     20  C   UNL     1       9.285   3.033   0.000  0.00  0.00    +0.000 A 
BRANCH  20  21
ATOM     21  O   UNL     1      10.001   3.442   0.000  0.00  0.00    +0.000 OA
ATOM     22  C   UNL     1      10.005   4.267   0.000  0.00  0.00    +0.000 C 
ENDBRANCH  20  21
ENDBRANCH   8  15
BRANCH   4  23
ATOM     23  O   UNL     1       5.665  -1.537   0.000  0.00  0.00    +0.000 OA
BRANCH  23  32
ATOM     24  O   UNL     1       4.236  -1.537   0.000  0.00  0.00    +0.000 OA
ATOM     25  O   UNL     1       4.236  -4.012   0.000  0.00  0.00    +0.000 OA
ATOM     26  O   UNL     1       2.808  -3.187   0.000  0.00  0.00    +0.000 OA
ATOM     27  O   UNL     1       5.665  -3.187   0.000  0.00  0.00    +0.000 OA
ATOM     28  C   UNL     1       4.236  -3.187   0.000  0.00  0.00    +0.000 C 
ATOM     29  C   UNL     1       3.522  -2.774   0.000  0.00  0.00    +0.000 C 
ATOM     30  C   UNL     1       4.951  -2.774   0.000  0.00  0.00    +0.000 C 
ATOM     31  C   UNL     1       3.522  -1.949   0.000  0.00  0.00    +0.000 C 
ATOM     32  C   UNL     1       4.951  -1.949   0.000  0.00  0.00    +0.000 C 
BRANCH  31  34
ATOM     33  O   UNL     1       2.093  -1.949   0.000  0.00  0.00    +0.000 OA
ATOM     34  C   UNL     1       2.808  -1.537   0.000  0.00  0.00    +0.000 C 
ENDBRANCH  31  34
ENDBRANCH  23  32
ENDBRANCH   4  23
TORSDOF 5
