REMARK  Name = 44257051
REMARK  3 active torsions:
REMARK  status: ('A' for Active; 'I' for Inactive)
REMARK    1  A    between atoms: O_3  and  C_18
REMARK    2  A    between atoms: O_5  and  C_27
REMARK    3  A    between atoms: C_11  and  C_20
REMARK                            x       y       z     vdW  Elec       q    Type
REMARK                         _______ _______ _______ _____ _____    ______ ____
ROOT
ATOM      1  O   UNL     1       3.780  -1.116   0.000  0.00  0.00    +0.000 OA
ATOM      2  O   UNL     1       5.981  -1.532   0.000  0.00  0.00    +0.000 OA
ATOM      3  O   UNL     1       3.749   4.855   0.000  0.00  0.00    +0.000 OA
ATOM      4  C   UNL     1       4.508   0.155   0.000  0.00  0.00    +0.000 A 
ATOM      5  C   UNL     1       4.508   0.980   0.000  0.00  0.00    +0.000 A 
ATOM      6  C   UNL     1       5.258  -0.263   0.000  0.00  0.00    +0.000 C 
ATOM      7  C   UNL     1       5.265  -1.122   0.000  0.00  0.00    +0.000 C 
ATOM      8  C   UNL     1       4.521  -1.552   0.000  0.00  0.00    +0.000 C 
ATOM      9  C   UNL     1       5.258   1.398   0.000  0.00  0.00    +0.000 C 
ATOM     10  C   UNL     1       3.793   1.393   0.000  0.00  0.00    +0.000 A 
ATOM     11  C   UNL     1       3.793  -0.257   0.000  0.00  0.00    +0.000 A 
ATOM     12  C   UNL     1       5.265   2.258   0.000  0.00  0.00    +0.000 C 
ATOM     13  C   UNL     1       3.780   2.252   0.000  0.00  0.00    +0.000 A 
ATOM     14  C   UNL     1       4.521   2.687   0.000  0.00  0.00    +0.000 A 
ATOM     15  C   UNL     1       3.079   0.980   0.000  0.00  0.00    +0.000 A 
ATOM     16  C   UNL     1       3.079   0.155   0.000  0.00  0.00    +0.000 A 
ATOM     17  C   UNL     1       2.995   2.682   0.000  0.00  0.00    +0.000 A 
ATOM     18  C   UNL     1       4.528   3.582   0.000  0.00  0.00    +0.000 A 
ATOM     19  C   UNL     1       3.752   4.030   0.000  0.00  0.00    +0.000 A 
ATOM     20  C   UNL     1       2.981   3.576   0.000  0.00  0.00    +0.000 A 
ENDROOT
BRANCH   8  22
ATOM     21  O   UNL     1       4.508  -4.851   0.000  0.00  0.00    +0.000 OA
ATOM     22  C   UNL     1       4.518  -2.377   0.000  0.00  0.00    +0.000 A 
ATOM     23  C   UNL     1       3.801  -2.786   0.000  0.00  0.00    +0.000 A 
ATOM     24  C   UNL     1       5.230  -2.792   0.000  0.00  0.00    +0.000 A 
ATOM     25  C   UNL     1       3.798  -3.611   0.000  0.00  0.00    +0.000 A 
ATOM     26  C   UNL     1       5.227  -3.617   0.000  0.00  0.00    +0.000 A 
ATOM     27  C   UNL     1       4.511  -4.027   0.000  0.00  0.00    +0.000 A 
BRANCH  25  28
ATOM     28  O   UNL     1       3.082  -4.021   0.000  0.00  0.00    +0.000 OA
ATOM     29  C   UNL     1       3.079  -4.846   0.000  0.00  0.00    +0.000 C 
ENDBRANCH  25  28
ENDBRANCH   8  22
BRANCH  15  30
ATOM     30  O   UNL     1       2.364   1.393   0.000  0.00  0.00    +0.000 OA
ATOM     31  C   UNL     1       1.650   0.980   0.000  0.00  0.00    +0.000 C 
ENDBRANCH  15  30
TORSDOF 3
