REMARK  Name = 131704
REMARK  3 active torsions:
REMARK  status: ('A' for Active; 'I' for Inactive)
REMARK    1  A    between atoms: O_5  and  C_17
REMARK    2  A    between atoms: C_9  and  C_14
REMARK    3  A    between atoms: C_22  and  C_24
REMARK                            x       y       z     vdW  Elec       q    Type
REMARK                         _______ _______ _______ _____ _____    ______ ____
ROOT
ATOM      1  O   UNL     1       5.245   0.384   0.000  0.00  0.00    +0.000 OA
ATOM      2  O   UNL     1       3.793   2.888   0.000  0.00  0.00    +0.000 OA
ATOM      3  O   UNL     1       5.236   2.916   0.000  0.00  0.00    +0.000 OA
ATOM      4  C   UNL     1       3.793   0.412   0.000  0.00  0.00    +0.000 A 
ATOM      5  C   UNL     1       4.508   0.825   0.000  0.00  0.00    +0.000 A 
ATOM      6  C   UNL     1       3.079   0.825   0.000  0.00  0.00    +0.000 A 
ATOM      7  C   UNL     1       4.508   1.650   0.000  0.00  0.00    +0.000 A 
ATOM      8  C   UNL     1       3.079   1.650   0.000  0.00  0.00    +0.000 A 
ATOM      9  C   UNL     1       3.793   2.062   0.000  0.00  0.00    +0.000 A 
ATOM     10  C   UNL     1       5.245   2.091   0.000  0.00  0.00    +0.000 A 
ATOM     11  C   UNL     1       5.993   0.808   0.000  0.00  0.00    +0.000 A 
ATOM     12  C   UNL     1       5.993   1.667   0.000  0.00  0.00    +0.000 A 
ENDROOT
BRANCH   4  16
ATOM     13  O   UNL     1       4.508  -0.825   0.000  0.00  0.00    +0.000 OA
ATOM     14  O   UNL     1       2.364  -2.062   0.000  0.00  0.00    +0.000 OA
ATOM     15  O   UNL     1       3.793  -2.888   0.000  0.00  0.00    +0.000 OA
ATOM     16  C   UNL     1       3.793  -0.412   0.000  0.00  0.00    +0.000 C 
ATOM     17  C   UNL     1       3.079  -1.650   0.000  0.00  0.00    +0.000 C 
ATOM     18  C   UNL     1       3.079  -0.825   0.000  0.00  0.00    +0.000 C 
ATOM     19  C   UNL     1       3.793  -2.062   0.000  0.00  0.00    +0.000 C 
ATOM     20  C   UNL     1       4.508  -1.650   0.000  0.00  0.00    +0.000 C 
ATOM     21  C   UNL     1       5.222  -2.062   0.000  0.00  0.00    +0.000 C 
ENDBRANCH   4  16
BRANCH  11  23
ATOM     22  O   UNL     1       8.844  -0.853   0.000  0.00  0.00    +0.000 OA
ATOM     23  C   UNL     1       6.706   0.393   0.000  0.00  0.00    +0.000 A 
ATOM     24  C   UNL     1       7.422   0.802   0.000  0.00  0.00    +0.000 A 
ATOM     25  C   UNL     1       6.703  -0.432   0.000  0.00  0.00    +0.000 A 
ATOM     26  C   UNL     1       8.135   0.387   0.000  0.00  0.00    +0.000 A 
ATOM     27  C   UNL     1       7.415  -0.848   0.000  0.00  0.00    +0.000 A 
ATOM     28  C   UNL     1       8.132  -0.438   0.000  0.00  0.00    +0.000 A 
ENDBRANCH  11  23
BRANCH   6  29
ATOM     29  O   UNL     1       2.364   0.412   0.000  0.00  0.00    +0.000 OA
ATOM     30  C   UNL     1       1.650   0.825   0.000  0.00  0.00    +0.000 C 
ENDBRANCH   6  29
TORSDOF 3
