REMARK  Name = 42607669
REMARK  8 active torsions:
REMARK  status: ('A' for Active; 'I' for Inactive)
REMARK    1  A    between atoms: O_2  and  C_14
REMARK    2  A    between atoms: O_2  and  C_16
REMARK    3  A    between atoms: O_7  and  C_22
REMARK    4  A    between atoms: C_13  and  C_15
REMARK    5  A    between atoms: C_17  and  C_19
REMARK    6  A    between atoms: C_19  and  C_20
REMARK    7  A    between atoms: C_20  and  C_23
REMARK    8  A    between atoms: C_23  and  C_25
REMARK                            x       y       z     vdW  Elec       q    Type
REMARK                         _______ _______ _______ _____ _____    ______ ____
ROOT
ATOM      1  C   UNL     1       5.665   0.540   0.000  0.00  0.00    +0.000 A 
ATOM      2  C   UNL     1       6.380   0.953   0.000  0.00  0.00    +0.000 A 
ATOM      3  C   UNL     1       4.951   0.953   0.000  0.00  0.00    +0.000 A 
ATOM      4  C   UNL     1       6.380   1.778   0.000  0.00  0.00    +0.000 A 
ATOM      5  C   UNL     1       4.951   1.778   0.000  0.00  0.00    +0.000 A 
ATOM      6  C   UNL     1       5.665   2.190   0.000  0.00  0.00    +0.000 A 
ENDROOT
BRANCH   5   7
ATOM      7  O   UNL     1       4.237   2.190   0.000  0.00  0.00    +0.000 OA
ATOM      8  C   UNL     1       4.237   3.015   0.000  0.00  0.00    +0.000 C 
ENDBRANCH   5   7
BRANCH   2  10
ATOM      9  O   UNL     1       7.094  -0.285   0.000  0.00  0.00    +0.000 OA
ATOM     10  C   UNL     1       7.094   0.540   0.000  0.00  0.00    +0.000 C 
BRANCH  10  11
ATOM     11  C   UNL     1       7.809   0.953   0.000  0.00  0.00    +0.000 C 
BRANCH  11  12
ATOM     12  C   UNL     1       8.523   0.540   0.000  0.00  0.00    +0.000 C 
BRANCH  12  14
ATOM     13  O   UNL     1      11.381   2.190   0.000  0.00  0.00    +0.000 OA
ATOM     14  C   UNL     1       9.238   0.953   0.000  0.00  0.00    +0.000 A 
ATOM     15  C   UNL     1       9.238   1.778   0.000  0.00  0.00    +0.000 A 
ATOM     16  C   UNL     1       9.952   0.540   0.000  0.00  0.00    +0.000 A 
ATOM     17  C   UNL     1       9.952   2.190   0.000  0.00  0.00    +0.000 A 
ATOM     18  C   UNL     1      10.667   0.953   0.000  0.00  0.00    +0.000 A 
ATOM     19  C   UNL     1      10.667   1.778   0.000  0.00  0.00    +0.000 A 
ENDBRANCH  12  14
ENDBRANCH  11  12
ENDBRANCH  10  11
ENDBRANCH   2  10
BRANCH   1  20
ATOM     20  O   UNL     1       5.665  -0.285   0.000  0.00  0.00    +0.000 OA
BRANCH  20  29
ATOM     21  O   UNL     1       4.237  -0.285   0.000  0.00  0.00    +0.000 OA
ATOM     22  O   UNL     1       4.237  -2.760   0.000  0.00  0.00    +0.000 OA
ATOM     23  O   UNL     1       2.808  -1.935   0.000  0.00  0.00    +0.000 OA
ATOM     24  O   UNL     1       5.665  -1.935   0.000  0.00  0.00    +0.000 OA
ATOM     25  C   UNL     1       4.237  -1.935   0.000  0.00  0.00    +0.000 C 
ATOM     26  C   UNL     1       3.522  -1.522   0.000  0.00  0.00    +0.000 C 
ATOM     27  C   UNL     1       4.951  -1.522   0.000  0.00  0.00    +0.000 C 
ATOM     28  C   UNL     1       3.522  -0.697   0.000  0.00  0.00    +0.000 C 
ATOM     29  C   UNL     1       4.951  -0.697   0.000  0.00  0.00    +0.000 C 
BRANCH  28  31
ATOM     30  O   UNL     1       2.093  -0.697   0.000  0.00  0.00    +0.000 OA
ATOM     31  C   UNL     1       2.808  -0.285   0.000  0.00  0.00    +0.000 C 
ENDBRANCH  28  31
ENDBRANCH  20  29
ENDBRANCH   1  20
TORSDOF 8
