REMARK  Name = 14237675
REMARK  4 active torsions:
REMARK  status: ('A' for Active; 'I' for Inactive)
REMARK    1  A    between atoms: O_3  and  C_18
REMARK    2  A    between atoms: C_5  and  C_12
REMARK    3  A    between atoms: C_9  and  C_10
REMARK    4  A    between atoms: C_9  and  C_19
REMARK                            x       y       z     vdW  Elec       q    Type
REMARK                         _______ _______ _______ _____ _____    ______ ____
ROOT
ATOM      1  O   UNL     1       5.245  -1.486   0.000  0.00  0.00    +0.000 OA
ATOM      2  O   UNL     1       2.364  -1.458   0.000  0.00  0.00    +0.000 OA
ATOM      3  C   UNL     1       5.993  -0.203   0.000  0.00  0.00    +0.000 C 
ATOM      4  C   UNL     1       5.245   0.221   0.000  0.00  0.00    +0.000 C 
ATOM      5  C   UNL     1       4.508  -0.220   0.000  0.00  0.00    +0.000 A 
ATOM      6  C   UNL     1       5.993  -1.062   0.000  0.00  0.00    +0.000 C 
ATOM      7  C   UNL     1       3.079  -0.220   0.000  0.00  0.00    +0.000 A 
ATOM      8  C   UNL     1       4.508  -1.045   0.000  0.00  0.00    +0.000 A 
ATOM      9  C   UNL     1       3.793   0.192   0.000  0.00  0.00    +0.000 A 
ATOM     10  C   UNL     1       3.079  -1.045   0.000  0.00  0.00    +0.000 A 
ATOM     11  C   UNL     1       3.793  -1.458   0.000  0.00  0.00    +0.000 A 
ENDROOT
BRANCH   3  13
ATOM     12  O   UNL     1       8.844   1.458   0.000  0.00  0.00    +0.000 OA
ATOM     13  C   UNL     1       6.706   0.212   0.000  0.00  0.00    +0.000 A 
ATOM     14  C   UNL     1       7.422  -0.198   0.000  0.00  0.00    +0.000 A 
ATOM     15  C   UNL     1       6.703   1.037   0.000  0.00  0.00    +0.000 A 
ATOM     16  C   UNL     1       8.135   0.218   0.000  0.00  0.00    +0.000 A 
ATOM     17  C   UNL     1       7.415   1.452   0.000  0.00  0.00    +0.000 A 
ATOM     18  C   UNL     1       8.132   1.042   0.000  0.00  0.00    +0.000 A 
BRANCH  14  19
ATOM     19  O   UNL     1       7.425  -1.023   0.000  0.00  0.00    +0.000 OA
ATOM     20  C   UNL     1       8.141  -1.432   0.000  0.00  0.00    +0.000 C 
ENDBRANCH  14  19
ENDBRANCH   3  13
BRANCH   7  21
ATOM     21  C   UNL     1       2.364   0.192   0.000  0.00  0.00    +0.000 C 
ATOM     22  C   UNL     1       2.777   0.907   0.000  0.00  0.00    +0.000 C 
ATOM     23  C   UNL     1       1.952  -0.522   0.000  0.00  0.00    +0.000 C 
BRANCH  21  24
ATOM     24  C   UNL     1       1.650   0.605   0.000  0.00  0.00    +0.000 C 
ATOM     25  C   UNL     1       1.650   1.430   0.000  0.00  0.00    +0.000 C 
ENDBRANCH  21  24
ENDBRANCH   7  21
TORSDOF 4
