REMARK  Name = 44257508
REMARK  4 active torsions:
REMARK  status: ('A' for Active; 'I' for Inactive)
REMARK    1  A    between atoms: O_4  and  C_20
REMARK    2  A    between atoms: C_5  and  C_10
REMARK    3  A    between atoms: C_11  and  C_14
REMARK    4  A    between atoms: C_14  and  C_21
REMARK                            x       y       z     vdW  Elec       q    Type
REMARK                         _______ _______ _______ _____ _____    ______ ____
ROOT
ATOM      1  O   UNL     1       4.974  -0.661   0.000  0.00  0.00    +0.000 OA
ATOM      2  O   UNL     1       2.093  -0.633   0.000  0.00  0.00    +0.000 OA
ATOM      3  C   UNL     1       5.721   0.622   0.000  0.00  0.00    +0.000 C 
ATOM      4  C   UNL     1       4.974   1.046   0.000  0.00  0.00    +0.000 C 
ATOM      5  C   UNL     1       5.721  -0.237   0.000  0.00  0.00    +0.000 C 
ATOM      6  C   UNL     1       4.236   0.605   0.000  0.00  0.00    +0.000 A 
ATOM      7  C   UNL     1       4.236  -0.220   0.000  0.00  0.00    +0.000 A 
ATOM      8  C   UNL     1       3.522  -0.633   0.000  0.00  0.00    +0.000 A 
ATOM      9  C   UNL     1       3.522   1.017   0.000  0.00  0.00    +0.000 A 
ATOM     10  C   UNL     1       2.808  -0.220   0.000  0.00  0.00    +0.000 A 
ATOM     11  C   UNL     1       2.808   0.605   0.000  0.00  0.00    +0.000 A 
ENDROOT
BRANCH   3  13
ATOM     12  O   UNL     1       7.154  -0.198   0.000  0.00  0.00    +0.000 OA
ATOM     13  C   UNL     1       6.434   1.037   0.000  0.00  0.00    +0.000 A 
ATOM     14  C   UNL     1       7.150   0.627   0.000  0.00  0.00    +0.000 A 
ATOM     15  C   UNL     1       6.431   1.862   0.000  0.00  0.00    +0.000 A 
ATOM     16  C   UNL     1       7.863   1.043   0.000  0.00  0.00    +0.000 A 
ATOM     17  C   UNL     1       7.144   2.277   0.000  0.00  0.00    +0.000 A 
ATOM     18  C   UNL     1       7.860   1.868   0.000  0.00  0.00    +0.000 A 
BRANCH  18  19
ATOM     19  O   UNL     1       8.573   2.283   0.000  0.00  0.00    +0.000 OA
ATOM     20  C   UNL     1       8.570   3.108   0.000  0.00  0.00    +0.000 C 
ENDBRANCH  18  19
ENDBRANCH   3  13
BRANCH   8  21
ATOM     21  C   UNL     1       3.522  -1.458   0.000  0.00  0.00    +0.000 C 
BRANCH  21  22
ATOM     22  C   UNL     1       2.808  -1.870   0.000  0.00  0.00    +0.000 C 
ATOM     23  C   UNL     1       2.808  -2.695   0.000  0.00  0.00    +0.000 C 
ATOM     24  C   UNL     1       2.093  -3.108   0.000  0.00  0.00    +0.000 C 
ATOM     25  C   UNL     1       3.522  -3.108   0.000  0.00  0.00    +0.000 C 
ENDBRANCH  21  22
ENDBRANCH   8  21
TORSDOF 4
