REMARK  Name = 44257945
REMARK  2 active torsions:
REMARK  status: ('A' for Active; 'I' for Inactive)
REMARK    1  A    between atoms: C_11  and  C_15
REMARK    2  A    between atoms: C_24  and  C_26
REMARK                            x       y       z     vdW  Elec       q    Type
REMARK                         _______ _______ _______ _____ _____    ______ ____
ROOT
ATOM      1  O   UNL     1       6.674  -0.841   0.000  0.00  0.00    +0.000 OA
ATOM      2  O   UNL     1       5.222   1.662   0.000  0.00  0.00    +0.000 OA
ATOM      3  O   UNL     1       3.793  -0.813   0.000  0.00  0.00    +0.000 OA
ATOM      4  O   UNL     1       6.665   1.691   0.000  0.00  0.00    +0.000 OA
ATOM      5  C   UNL     1       4.508   0.425   0.000  0.00  0.00    +0.000 A 
ATOM      6  C   UNL     1       5.222   0.837   0.000  0.00  0.00    +0.000 A 
ATOM      7  C   UNL     1       4.508  -0.400   0.000  0.00  0.00    +0.000 A 
ATOM      8  C   UNL     1       5.937   0.425   0.000  0.00  0.00    +0.000 A 
ATOM      9  C   UNL     1       5.937  -0.400   0.000  0.00  0.00    +0.000 A 
ATOM     10  C   UNL     1       5.222  -0.813   0.000  0.00  0.00    +0.000 A 
ATOM     11  C   UNL     1       6.674   0.866   0.000  0.00  0.00    +0.000 A 
ATOM     12  C   UNL     1       7.422  -0.417   0.000  0.00  0.00    +0.000 A 
ATOM     13  C   UNL     1       7.422   0.442   0.000  0.00  0.00    +0.000 A 
ENDROOT
BRANCH   5  18
ATOM     14  O   UNL     1       3.079   0.425   0.000  0.00  0.00    +0.000 OA
ATOM     15  O   UNL     1       4.508   2.075   0.000  0.00  0.00    +0.000 OA
ATOM     16  O   UNL     1       3.079   2.900   0.000  0.00  0.00    +0.000 OA
ATOM     17  O   UNL     1       1.650   2.075   0.000  0.00  0.00    +0.000 OA
ATOM     18  C   UNL     1       3.793   0.837   0.000  0.00  0.00    +0.000 C 
ATOM     19  C   UNL     1       3.793   1.662   0.000  0.00  0.00    +0.000 C 
ATOM     20  C   UNL     1       3.079   2.075   0.000  0.00  0.00    +0.000 C 
ATOM     21  C   UNL     1       2.364   0.837   0.000  0.00  0.00    +0.000 C 
ATOM     22  C   UNL     1       2.364   1.662   0.000  0.00  0.00    +0.000 C 
ATOM     23  C   UNL     1       1.650   0.425   0.000  0.00  0.00    +0.000 C 
ENDBRANCH   5  18
BRANCH  12  26
ATOM     24  O   UNL     1       8.841  -2.898   0.000  0.00  0.00    +0.000 OA
ATOM     25  O   UNL     1      10.273  -2.079   0.000  0.00  0.00    +0.000 OA
ATOM     26  C   UNL     1       8.135  -0.833   0.000  0.00  0.00    +0.000 A 
ATOM     27  C   UNL     1       8.132  -1.658   0.000  0.00  0.00    +0.000 A 
ATOM     28  C   UNL     1       8.851  -0.423   0.000  0.00  0.00    +0.000 A 
ATOM     29  C   UNL     1       8.844  -2.073   0.000  0.00  0.00    +0.000 A 
ATOM     30  C   UNL     1       9.564  -0.838   0.000  0.00  0.00    +0.000 A 
ATOM     31  C   UNL     1       9.560  -1.663   0.000  0.00  0.00    +0.000 A 
ENDBRANCH  12  26
TORSDOF 2
