REMARK  Name = 44260080
REMARK  5 active torsions:
REMARK  status: ('A' for Active; 'I' for Inactive)
REMARK    1  A    between atoms: O_4  and  C_13
REMARK    2  A    between atoms: O_5  and  C_16
REMARK    3  A    between atoms: O_7  and  C_20
REMARK    4  A    between atoms: O_10  and  C_26
REMARK    5  A    between atoms: C_17  and  C_18
REMARK                            x       y       z     vdW  Elec       q    Type
REMARK                         _______ _______ _______ _____ _____    ______ ____
ROOT
ATOM      1  O   UNL     1       5.800  -0.222   0.000  0.00  0.00    +0.000 OA
ATOM      2  O   UNL     1       8.747   1.295   0.000  0.00  0.00    +0.000 OA
ATOM      3  O   UNL     1       8.747  -0.032   0.000  0.00  0.00    +0.000 OA
ATOM      4  O   UNL     1       5.809   2.310   0.000  0.00  0.00    +0.000 OA
ATOM      5  C   UNL     1       6.537   1.044   0.000  0.00  0.00    +0.000 A 
ATOM      6  C   UNL     1       6.537   0.219   0.000  0.00  0.00    +0.000 A 
ATOM      7  C   UNL     1       7.252   1.456   0.000  0.00  0.00    +0.000 A 
ATOM      8  C   UNL     1       7.966   1.044   0.000  0.00  0.00    +0.000 A 
ATOM      9  C   UNL     1       7.966   0.219   0.000  0.00  0.00    +0.000 A 
ATOM     10  C   UNL     1       7.252  -0.194   0.000  0.00  0.00    +0.000 A 
ATOM     11  C   UNL     1       5.052   0.202   0.000  0.00  0.00    +0.000 A 
ATOM     12  C   UNL     1       5.800   1.485   0.000  0.00  0.00    +0.000 A 
ATOM     13  C   UNL     1       5.052   1.061   0.000  0.00  0.00    +0.000 A 
ATOM     14  C   UNL     1       9.228   0.631   0.000  0.00  0.00    +0.000 C 
ENDROOT
BRANCH  11  17
ATOM     15  O   UNL     1       2.129   0.029   0.000  0.00  0.00    +0.000 OA
ATOM     16  O   UNL     1       2.134  -1.298   0.000  0.00  0.00    +0.000 OA
ATOM     17  C   UNL     1       4.339  -0.213   0.000  0.00  0.00    +0.000 A 
ATOM     18  C   UNL     1       3.623   0.196   0.000  0.00  0.00    +0.000 A 
ATOM     19  C   UNL     1       2.910  -0.219   0.000  0.00  0.00    +0.000 A 
ATOM     20  C   UNL     1       4.343  -1.038   0.000  0.00  0.00    +0.000 A 
ATOM     21  C   UNL     1       2.914  -1.044   0.000  0.00  0.00    +0.000 A 
ATOM     22  C   UNL     1       3.630  -1.454   0.000  0.00  0.00    +0.000 A 
ATOM     23  C   UNL     1       1.650  -0.636   0.000  0.00  0.00    +0.000 C 
BRANCH  22  24
ATOM     24  O   UNL     1       3.633  -2.279   0.000  0.00  0.00    +0.000 OA
ATOM     25  C   UNL     1       2.920  -2.694   0.000  0.00  0.00    +0.000 C 
ENDBRANCH  22  24
ENDBRANCH  11  17
BRANCH   7  26
ATOM     26  O   UNL     1       7.252   2.281   0.000  0.00  0.00    +0.000 OA
ATOM     27  C   UNL     1       7.966   2.694   0.000  0.00  0.00    +0.000 C 
ENDBRANCH   7  26
BRANCH  10  28
ATOM     28  O   UNL     1       7.252  -1.018   0.000  0.00  0.00    +0.000 OA
ATOM     29  C   UNL     1       7.966  -1.431   0.000  0.00  0.00    +0.000 C 
ENDBRANCH  10  28
BRANCH  13  30
ATOM     30  O   UNL     1       4.339   1.476   0.000  0.00  0.00    +0.000 OA
ATOM     31  C   UNL     1       4.343   2.301   0.000  0.00  0.00    +0.000 C 
ENDBRANCH  13  30
TORSDOF 5
