REMARK  Name = 44257173
REMARK  4 active torsions:
REMARK  status: ('A' for Active; 'I' for Inactive)
REMARK    1  A    between atoms: O_2  and  C_17
REMARK    2  A    between atoms: C_5  and  C_11
REMARK    3  A    between atoms: C_7  and  C_10
REMARK    4  A    between atoms: C_18  and  C_21
REMARK                            x       y       z     vdW  Elec       q    Type
REMARK                         _______ _______ _______ _____ _____    ______ ____
ROOT
ATOM      1  O   UNL     1       5.278  -2.347   0.000  0.00  0.00    +0.000 OA
ATOM      2  C   UNL     1       5.278  -0.697   0.000  0.00  0.00    +0.000 C 
ATOM      3  C   UNL     1       5.993  -1.110   0.000  0.00  0.00    +0.000 C 
ATOM      4  C   UNL     1       5.993  -1.935   0.000  0.00  0.00    +0.000 C 
ATOM      5  C   UNL     1       4.564  -1.110   0.000  0.00  0.00    +0.000 A 
ATOM      6  C   UNL     1       4.564  -1.935   0.000  0.00  0.00    +0.000 A 
ATOM      7  C   UNL     1       3.826  -0.668   0.000  0.00  0.00    +0.000 A 
ATOM      8  C   UNL     1       3.826  -2.376   0.000  0.00  0.00    +0.000 A 
ATOM      9  C   UNL     1       3.079  -1.093   0.000  0.00  0.00    +0.000 A 
ATOM     10  C   UNL     1       3.079  -1.952   0.000  0.00  0.00    +0.000 A 
ENDROOT
BRANCH   4  12
ATOM     11  O   UNL     1       8.851  -3.585   0.000  0.00  0.00    +0.000 OA
ATOM     12  C   UNL     1       6.707  -2.347   0.000  0.00  0.00    +0.000 A 
ATOM     13  C   UNL     1       7.422  -1.935   0.000  0.00  0.00    +0.000 A 
ATOM     14  C   UNL     1       6.707  -3.172   0.000  0.00  0.00    +0.000 A 
ATOM     15  C   UNL     1       8.136  -2.347   0.000  0.00  0.00    +0.000 A 
ATOM     16  C   UNL     1       7.422  -3.585   0.000  0.00  0.00    +0.000 A 
ATOM     17  C   UNL     1       8.136  -3.172   0.000  0.00  0.00    +0.000 A 
ENDBRANCH   4  12
BRANCH  10  18
ATOM     18  O   UNL     1       2.366  -2.367   0.000  0.00  0.00    +0.000 OA
ATOM     19  C   UNL     1       1.650  -1.957   0.000  0.00  0.00    +0.000 C 
ENDBRANCH  10  18
BRANCH   2  20
ATOM     20  C   UNL     1       5.278   0.128   0.000  0.00  0.00    +0.000 C 
ATOM     21  C   UNL     1       5.993   0.540   0.000  0.00  0.00    +0.000 C 
BRANCH  21  23
ATOM     22  O   UNL     1       5.993   3.840   0.000  0.00  0.00    +0.000 OA
ATOM     23  C   UNL     1       5.993   1.365   0.000  0.00  0.00    +0.000 A 
ATOM     24  C   UNL     1       5.278   1.778   0.000  0.00  0.00    +0.000 A 
ATOM     25  C   UNL     1       6.707   1.778   0.000  0.00  0.00    +0.000 A 
ATOM     26  C   UNL     1       5.278   2.603   0.000  0.00  0.00    +0.000 A 
ATOM     27  C   UNL     1       6.707   2.603   0.000  0.00  0.00    +0.000 A 
ATOM     28  C   UNL     1       5.993   3.015   0.000  0.00  0.00    +0.000 A 
ENDBRANCH  21  23
ENDBRANCH   2  20
TORSDOF 4
