REMARK  Name = 44257204
REMARK  3 active torsions:
REMARK  status: ('A' for Active; 'I' for Inactive)
REMARK    1  A    between atoms: O_3  and  C_13
REMARK    2  A    between atoms: C_6  and  C_12
REMARK    3  A    between atoms: C_10  and  C_16
REMARK                            x       y       z     vdW  Elec       q    Type
REMARK                         _______ _______ _______ _____ _____    ______ ____
ROOT
ATOM      1  O   UNL     1       3.369  -2.136   0.000  0.00  0.00    +0.000 OA
ATOM      2  O   UNL     1       4.851   0.212   0.000  0.00  0.00    +0.000 OA
ATOM      3  C   UNL     1       3.369  -0.808   0.000  0.00  0.00    +0.000 C 
ATOM      4  C   UNL     1       4.150  -1.060   0.000  0.00  0.00    +0.000 A 
ATOM      5  C   UNL     1       2.888  -1.472   0.000  0.00  0.00    +0.000 C 
ATOM      6  C   UNL     1       4.150  -1.885   0.000  0.00  0.00    +0.000 A 
ATOM      7  C   UNL     1       4.864  -0.647   0.000  0.00  0.00    +0.000 A 
ATOM      8  C   UNL     1       5.579  -1.060   0.000  0.00  0.00    +0.000 A 
ATOM      9  C   UNL     1       5.592   0.647   0.000  0.00  0.00    +0.000 C 
ATOM     10  C   UNL     1       4.864  -2.297   0.000  0.00  0.00    +0.000 A 
ATOM     11  C   UNL     1       5.579  -1.885   0.000  0.00  0.00    +0.000 A 
ATOM     12  C   UNL     1       6.329  -0.642   0.000  0.00  0.00    +0.000 C 
ATOM     13  C   UNL     1       6.336   0.218   0.000  0.00  0.00    +0.000 C 
ENDROOT
BRANCH   9  14
ATOM     14  C   UNL     1       5.588   1.472   0.000  0.00  0.00    +0.000 A 
ATOM     15  C   UNL     1       4.872   1.882   0.000  0.00  0.00    +0.000 A 
ATOM     16  C   UNL     1       6.301   1.888   0.000  0.00  0.00    +0.000 A 
ATOM     17  C   UNL     1       4.869   2.707   0.000  0.00  0.00    +0.000 A 
ATOM     18  C   UNL     1       6.298   2.713   0.000  0.00  0.00    +0.000 A 
ATOM     19  C   UNL     1       5.582   3.122   0.000  0.00  0.00    +0.000 A 
ENDBRANCH   9  14
BRANCH   5  20
ATOM     20  C   UNL     1       2.062  -1.472   0.000  0.00  0.00    +0.000 C 
ATOM     21  C   UNL     1       1.650  -2.187   0.000  0.00  0.00    +0.000 C 
ATOM     22  C   UNL     1       1.650  -0.758   0.000  0.00  0.00    +0.000 C 
ENDBRANCH   5  20
BRANCH  11  23
ATOM     23  O   UNL     1       6.293  -2.297   0.000  0.00  0.00    +0.000 OA
ATOM     24  C   UNL     1       6.293  -3.122   0.000  0.00  0.00    +0.000 C 
ENDBRANCH  11  23
TORSDOF 3
