REMARK  Name = 42607844
REMARK  4 active torsions:
REMARK  status: ('A' for Active; 'I' for Inactive)
REMARK    1  A    between atoms: O_2  and  C_16
REMARK    2  A    between atoms: O_2  and  C_18
REMARK    3  A    between atoms: C_15  and  C_17
REMARK    4  A    between atoms: C_19  and  C_27
REMARK                            x       y       z     vdW  Elec       q    Type
REMARK                         _______ _______ _______ _____ _____    ______ ____
ROOT
ATOM      1  O   UNL     1       7.114   0.854   0.000  0.00  0.00    +0.000 OA
ATOM      2  O   UNL     1       4.225   0.868   0.000  0.00  0.00    +0.000 OA
ATOM      3  O   UNL     1       4.975   2.100   0.000  0.00  0.00    +0.000 OA
ATOM      4  C   UNL     1       5.665  -0.847   0.000  0.00  0.00    +0.000 A 
ATOM      5  C   UNL     1       7.117   1.679   0.000  0.00  0.00    +0.000 C 
ATOM      6  C   UNL     1       6.404   2.095   0.000  0.00  0.00    +0.000 C 
ATOM      7  C   UNL     1       6.398   0.445   0.000  0.00  0.00    +0.000 A 
ATOM      8  C   UNL     1       5.685   0.860   0.000  0.00  0.00    +0.000 A 
ATOM      9  C   UNL     1       6.408  -0.415   0.000  0.00  0.00    +0.000 A 
ATOM     10  C   UNL     1       5.688   1.685   0.000  0.00  0.00    +0.000 C 
ATOM     11  C   UNL     1       4.923  -0.415   0.000  0.00  0.00    +0.000 A 
ATOM     12  C   UNL     1       4.933   0.445   0.000  0.00  0.00    +0.000 A 
ENDROOT
BRANCH   5  15
ATOM     13  O   UNL     1       8.543   0.849   0.000  0.00  0.00    +0.000 OA
ATOM     14  O   UNL     1       8.556   4.149   0.000  0.00  0.00    +0.000 OA
ATOM     15  C   UNL     1       7.833   2.089   0.000  0.00  0.00    +0.000 A 
ATOM     16  C   UNL     1       8.546   1.674   0.000  0.00  0.00    +0.000 A 
ATOM     17  C   UNL     1       7.836   2.914   0.000  0.00  0.00    +0.000 A 
ATOM     18  C   UNL     1       8.552   3.324   0.000  0.00  0.00    +0.000 A 
ATOM     19  C   UNL     1       9.262   2.084   0.000  0.00  0.00    +0.000 A 
ATOM     20  C   UNL     1       9.265   2.909   0.000  0.00  0.00    +0.000 A 
ENDBRANCH   5  15
BRANCH   4  21
ATOM     21  O   UNL     1       5.665  -1.672   0.000  0.00  0.00    +0.000 OA
BRANCH  21  30
ATOM     22  O   UNL     1       4.236  -1.672   0.000  0.00  0.00    +0.000 OA
ATOM     23  O   UNL     1       4.236  -4.147   0.000  0.00  0.00    +0.000 OA
ATOM     24  O   UNL     1       2.808  -3.322   0.000  0.00  0.00    +0.000 OA
ATOM     25  O   UNL     1       5.665  -3.322   0.000  0.00  0.00    +0.000 OA
ATOM     26  C   UNL     1       4.236  -3.322   0.000  0.00  0.00    +0.000 C 
ATOM     27  C   UNL     1       3.522  -2.910   0.000  0.00  0.00    +0.000 C 
ATOM     28  C   UNL     1       4.951  -2.910   0.000  0.00  0.00    +0.000 C 
ATOM     29  C   UNL     1       3.522  -2.085   0.000  0.00  0.00    +0.000 C 
ATOM     30  C   UNL     1       4.951  -2.085   0.000  0.00  0.00    +0.000 C 
BRANCH  29  32
ATOM     31  O   UNL     1       2.093  -2.085   0.000  0.00  0.00    +0.000 OA
ATOM     32  C   UNL     1       2.808  -1.672   0.000  0.00  0.00    +0.000 C 
ENDBRANCH  29  32
ENDBRANCH  21  30
ENDBRANCH   4  21
TORSDOF 4
