REMARK  Name = 42607968
REMARK  4 active torsions:
REMARK  status: ('A' for Active; 'I' for Inactive)
REMARK    1  A    between atoms: O_2  and  C_16
REMARK    2  A    between atoms: O_2  and  C_18
REMARK    3  A    between atoms: C_15  and  C_17
REMARK    4  A    between atoms: C_20  and  C_25
REMARK                            x       y       z     vdW  Elec       q    Type
REMARK                         _______ _______ _______ _____ _____    ______ ____
ROOT
ATOM      1  O   UNL     1       7.137   1.755   0.000  0.00  0.00    +0.000 OA
ATOM      2  O   UNL     1       7.108  -0.720   0.000  0.00  0.00    +0.000 OA
ATOM      3  O   UNL     1       4.225   1.809   0.000  0.00  0.00    +0.000 OA
ATOM      4  C   UNL     1       5.665   0.093   0.000  0.00  0.00    +0.000 A 
ATOM      5  C   UNL     1       6.408   0.526   0.000  0.00  0.00    +0.000 A 
ATOM      6  C   UNL     1       7.846   1.334   0.000  0.00  0.00    +0.000 C 
ATOM      7  C   UNL     1       7.837   0.509   0.000  0.00  0.00    +0.000 C 
ATOM      8  C   UNL     1       6.417   1.351   0.000  0.00  0.00    +0.000 A 
ATOM      9  C   UNL     1       7.117   0.105   0.000  0.00  0.00    +0.000 C 
ATOM     10  C   UNL     1       4.923   0.526   0.000  0.00  0.00    +0.000 A 
ATOM     11  C   UNL     1       5.685   1.800   0.000  0.00  0.00    +0.000 A 
ATOM     12  C   UNL     1       4.933   1.385   0.000  0.00  0.00    +0.000 A 
ENDROOT
BRANCH   6  15
ATOM     13  O   UNL     1      10.704   1.301   0.000  0.00  0.00    +0.000 OA
ATOM     14  O   UNL     1      10.723   2.951   0.000  0.00  0.00    +0.000 OA
ATOM     15  C   UNL     1       8.566   1.738   0.000  0.00  0.00    +0.000 A 
ATOM     16  C   UNL     1       9.275   1.318   0.000  0.00  0.00    +0.000 A 
ATOM     17  C   UNL     1       8.575   2.563   0.000  0.00  0.00    +0.000 A 
ATOM     18  C   UNL     1       9.994   1.722   0.000  0.00  0.00    +0.000 A 
ATOM     19  C   UNL     1       9.294   2.967   0.000  0.00  0.00    +0.000 A 
ATOM     20  C   UNL     1      10.004   2.547   0.000  0.00  0.00    +0.000 A 
ENDBRANCH   6  15
BRANCH   4  21
ATOM     21  O   UNL     1       5.665  -0.732   0.000  0.00  0.00    +0.000 OA
BRANCH  21  30
ATOM     22  O   UNL     1       4.236  -0.732   0.000  0.00  0.00    +0.000 OA
ATOM     23  O   UNL     1       4.236  -3.207   0.000  0.00  0.00    +0.000 OA
ATOM     24  O   UNL     1       2.808  -2.382   0.000  0.00  0.00    +0.000 OA
ATOM     25  O   UNL     1       5.665  -2.382   0.000  0.00  0.00    +0.000 OA
ATOM     26  C   UNL     1       4.236  -2.382   0.000  0.00  0.00    +0.000 C 
ATOM     27  C   UNL     1       3.522  -1.969   0.000  0.00  0.00    +0.000 C 
ATOM     28  C   UNL     1       4.951  -1.969   0.000  0.00  0.00    +0.000 C 
ATOM     29  C   UNL     1       3.522  -1.144   0.000  0.00  0.00    +0.000 C 
ATOM     30  C   UNL     1       4.951  -1.144   0.000  0.00  0.00    +0.000 C 
BRANCH  29  32
ATOM     31  O   UNL     1       2.093  -1.144   0.000  0.00  0.00    +0.000 OA
ATOM     32  C   UNL     1       2.808  -0.732   0.000  0.00  0.00    +0.000 C 
ENDBRANCH  29  32
ENDBRANCH  21  30
ENDBRANCH   4  21
TORSDOF 4
