REMARK  Name = 14213549
REMARK  6 active torsions:
REMARK  status: ('A' for Active; 'I' for Inactive)
REMARK    1  A    between atoms: O_2  and  C_16
REMARK    2  A    between atoms: O_2  and  C_18
REMARK    3  A    between atoms: C_14  and  C_17
REMARK    4  A    between atoms: C_21  and  C_24
REMARK    5  A    between atoms: C_24  and  C_25
REMARK    6  A    between atoms: C_26  and  C_27
REMARK                            x       y       z     vdW  Elec       q    Type
REMARK                         _______ _______ _______ _____ _____    ______ ____
ROOT
ATOM      1  O   UNL     1       7.094  -1.444   0.000  0.00  0.00    +0.000 OA
ATOM      2  O   UNL     1       4.236  -1.444   0.000  0.00  0.00    +0.000 OA
ATOM      3  C   UNL     1       5.665  -1.444   0.000  0.00  0.00    +0.000 A 
ATOM      4  C   UNL     1       6.380  -1.031   0.000  0.00  0.00    +0.000 A 
ATOM      5  C   UNL     1       4.951  -1.031   0.000  0.00  0.00    +0.000 A 
ATOM      6  C   UNL     1       6.380  -0.206   0.000  0.00  0.00    +0.000 A 
ATOM      7  C   UNL     1       4.951  -0.206   0.000  0.00  0.00    +0.000 A 
ATOM      8  C   UNL     1       5.665   0.206   0.000  0.00  0.00    +0.000 A 
ENDROOT
BRANCH   6  10
ATOM      9  O   UNL     1       7.809  -0.206   0.000  0.00  0.00    +0.000 OA
ATOM     10  C   UNL     1       7.094   0.206   0.000  0.00  0.00    +0.000 C 
BRANCH  10  11
ATOM     11  C   UNL     1       7.094   1.031   0.000  0.00  0.00    +0.000 C 
ATOM     12  C   UNL     1       7.809   1.444   0.000  0.00  0.00    +0.000 C 
BRANCH  12  15
ATOM     13  O   UNL     1       9.238   3.919   0.000  0.00  0.00    +0.000 OA
ATOM     14  O   UNL     1       7.809   4.744   0.000  0.00  0.00    +0.000 OA
ATOM     15  C   UNL     1       7.809   2.269   0.000  0.00  0.00    +0.000 A 
ATOM     16  C   UNL     1       8.523   2.681   0.000  0.00  0.00    +0.000 A 
ATOM     17  C   UNL     1       7.094   2.681   0.000  0.00  0.00    +0.000 A 
ATOM     18  C   UNL     1       8.523   3.506   0.000  0.00  0.00    +0.000 A 
ATOM     19  C   UNL     1       7.094   3.506   0.000  0.00  0.00    +0.000 A 
ATOM     20  C   UNL     1       7.809   3.919   0.000  0.00  0.00    +0.000 A 
ENDBRANCH  12  15
ENDBRANCH  10  11
ENDBRANCH   6  10
BRANCH   3  21
ATOM     21  O   UNL     1       5.665  -2.269   0.000  0.00  0.00    +0.000 OA
BRANCH  21  30
ATOM     22  O   UNL     1       4.236  -2.269   0.000  0.00  0.00    +0.000 OA
ATOM     23  O   UNL     1       4.236  -4.744   0.000  0.00  0.00    +0.000 OA
ATOM     24  O   UNL     1       2.808  -3.919   0.000  0.00  0.00    +0.000 OA
ATOM     25  O   UNL     1       5.665  -3.919   0.000  0.00  0.00    +0.000 OA
ATOM     26  C   UNL     1       4.236  -3.919   0.000  0.00  0.00    +0.000 C 
ATOM     27  C   UNL     1       3.522  -3.506   0.000  0.00  0.00    +0.000 C 
ATOM     28  C   UNL     1       3.522  -2.681   0.000  0.00  0.00    +0.000 C 
ATOM     29  C   UNL     1       4.951  -3.506   0.000  0.00  0.00    +0.000 C 
ATOM     30  C   UNL     1       4.951  -2.681   0.000  0.00  0.00    +0.000 C 
BRANCH  28  32
ATOM     31  O   UNL     1       2.093  -2.681   0.000  0.00  0.00    +0.000 OA
ATOM     32  C   UNL     1       2.808  -2.269   0.000  0.00  0.00    +0.000 C 
ENDBRANCH  28  32
ENDBRANCH  21  30
ENDBRANCH   3  21
TORSDOF 6
