REMARK  Name = 42608127
REMARK  4 active torsions:
REMARK  status: ('A' for Active; 'I' for Inactive)
REMARK    1  A    between atoms: O_2  and  C_16
REMARK    2  A    between atoms: O_2  and  C_19
REMARK    3  A    between atoms: C_15  and  C_17
REMARK    4  A    between atoms: C_18  and  C_25
REMARK                            x       y       z     vdW  Elec       q    Type
REMARK                         _______ _______ _______ _____ _____    ______ ____
ROOT
ATOM      1  O   UNL     1       7.114   0.790   0.000  0.00  0.00    +0.000 OA
ATOM      2  O   UNL     1       7.942   1.612   0.000  0.00  0.00    +0.000 OA
ATOM      3  O   UNL     1       4.225   0.804   0.000  0.00  0.00    +0.000 OA
ATOM      4  O   UNL     1       4.975   2.036   0.000  0.00  0.00    +0.000 OA
ATOM      5  C   UNL     1       7.117   1.615   0.000  0.00  0.00    +0.000 C 
ATOM      6  C   UNL     1       5.665  -0.911   0.000  0.00  0.00    +0.000 A 
ATOM      7  C   UNL     1       6.404   2.031   0.000  0.00  0.00    +0.000 C 
ATOM      8  C   UNL     1       6.398   0.381   0.000  0.00  0.00    +0.000 A 
ATOM      9  C   UNL     1       5.685   0.796   0.000  0.00  0.00    +0.000 A 
ATOM     10  C   UNL     1       6.408  -0.479   0.000  0.00  0.00    +0.000 A 
ATOM     11  C   UNL     1       5.688   1.621   0.000  0.00  0.00    +0.000 C 
ATOM     12  C   UNL     1       4.923  -0.479   0.000  0.00  0.00    +0.000 A 
ATOM     13  C   UNL     1       4.933   0.381   0.000  0.00  0.00    +0.000 A 
ENDROOT
BRANCH   5  15
ATOM     14  O   UNL     1       8.778   4.467   0.000  0.00  0.00    +0.000 OA
ATOM     15  C   UNL     1       7.532   2.328   0.000  0.00  0.00    +0.000 A 
ATOM     16  C   UNL     1       7.123   3.044   0.000  0.00  0.00    +0.000 A 
ATOM     17  C   UNL     1       8.357   2.325   0.000  0.00  0.00    +0.000 A 
ATOM     18  C   UNL     1       7.538   3.757   0.000  0.00  0.00    +0.000 A 
ATOM     19  C   UNL     1       8.773   3.038   0.000  0.00  0.00    +0.000 A 
ATOM     20  C   UNL     1       8.363   3.754   0.000  0.00  0.00    +0.000 A 
ENDBRANCH   5  15
BRANCH   6  21
ATOM     21  O   UNL     1       5.665  -1.736   0.000  0.00  0.00    +0.000 OA
BRANCH  21  30
ATOM     22  O   UNL     1       4.236  -1.736   0.000  0.00  0.00    +0.000 OA
ATOM     23  O   UNL     1       4.236  -4.211   0.000  0.00  0.00    +0.000 OA
ATOM     24  O   UNL     1       2.808  -3.386   0.000  0.00  0.00    +0.000 OA
ATOM     25  O   UNL     1       5.665  -3.386   0.000  0.00  0.00    +0.000 OA
ATOM     26  C   UNL     1       4.236  -3.386   0.000  0.00  0.00    +0.000 C 
ATOM     27  C   UNL     1       3.522  -2.974   0.000  0.00  0.00    +0.000 C 
ATOM     28  C   UNL     1       4.951  -2.974   0.000  0.00  0.00    +0.000 C 
ATOM     29  C   UNL     1       3.522  -2.149   0.000  0.00  0.00    +0.000 C 
ATOM     30  C   UNL     1       4.951  -2.149   0.000  0.00  0.00    +0.000 C 
BRANCH  29  32
ATOM     31  O   UNL     1       2.093  -2.149   0.000  0.00  0.00    +0.000 OA
ATOM     32  C   UNL     1       2.808  -1.736   0.000  0.00  0.00    +0.000 C 
ENDBRANCH  29  32
ENDBRANCH  21  30
ENDBRANCH   6  21
TORSDOF 4
