REMARK  Name = 11196546
REMARK  2 active torsions:
REMARK  status: ('A' for Active; 'I' for Inactive)
REMARK    1  A    between atoms: O_3  and  C_19
REMARK    2  A    between atoms: C_5  and  C_9
REMARK                            x       y       z     vdW  Elec       q    Type
REMARK                         _______ _______ _______ _____ _____    ______ ____
ROOT
ATOM      1  O   UNL     1       5.006   0.320   0.000  0.00  0.00    +0.000 OA
ATOM      2  O   UNL     1       2.094   0.300   0.000  0.00  0.00    +0.000 OA
ATOM      3  C   UNL     1       5.721   0.732   0.000  0.00  0.00    +0.000 C 
ATOM      4  C   UNL     1       5.721   1.557   0.000  0.00  0.00    +0.000 C 
ATOM      5  C   UNL     1       5.006   1.970   0.000  0.00  0.00    +0.000 C 
ATOM      6  C   UNL     1       4.292   1.557   0.000  0.00  0.00    +0.000 A 
ATOM      7  C   UNL     1       4.292   0.732   0.000  0.00  0.00    +0.000 A 
ATOM      8  C   UNL     1       3.554   1.998   0.000  0.00  0.00    +0.000 A 
ATOM      9  C   UNL     1       3.554   0.291   0.000  0.00  0.00    +0.000 A 
ATOM     10  C   UNL     1       2.807   1.575   0.000  0.00  0.00    +0.000 A 
ATOM     11  C   UNL     1       2.807   0.715   0.000  0.00  0.00    +0.000 A 
ENDROOT
BRANCH   3  13
ATOM     12  O   UNL     1       7.150  -1.743   0.000  0.00  0.00    +0.000 OA
ATOM     13  C   UNL     1       6.435   0.320   0.000  0.00  0.00    +0.000 A 
ATOM     14  C   UNL     1       6.435  -0.505   0.000  0.00  0.00    +0.000 A 
ATOM     15  C   UNL     1       7.150   0.732   0.000  0.00  0.00    +0.000 A 
ATOM     16  C   UNL     1       7.150  -0.918   0.000  0.00  0.00    +0.000 A 
ATOM     17  C   UNL     1       7.864   0.320   0.000  0.00  0.00    +0.000 A 
ATOM     18  C   UNL     1       7.864  -0.505   0.000  0.00  0.00    +0.000 A 
BRANCH  18  19
ATOM     19  O   UNL     1       8.579  -0.918   0.000  0.00  0.00    +0.000 OA
ATOM     20  C   UNL     1       9.293  -0.505   0.000  0.00  0.00    +0.000 C 
ENDBRANCH  18  19
ENDBRANCH   3  13
TORSDOF 2
