REMARK  Name = 25232840
REMARK  2 active torsions:
REMARK  status: ('A' for Active; 'I' for Inactive)
REMARK    1  A    between atoms: O_4  and  C_19
REMARK    2  A    between atoms: C_5  and  C_10
REMARK                            x       y       z     vdW  Elec       q    Type
REMARK                         _______ _______ _______ _____ _____    ______ ____
ROOT
ATOM      1  O   UNL     1       4.974  -0.761   0.000  0.00  0.00    +0.000 OA
ATOM      2  O   UNL     1       3.522   1.742   0.000  0.00  0.00    +0.000 OA
ATOM      3  O   UNL     1       2.093  -0.733   0.000  0.00  0.00    +0.000 OA
ATOM      4  C   UNL     1       5.721  -0.337   0.000  0.00  0.00    +0.000 C 
ATOM      5  C   UNL     1       5.721   0.522   0.000  0.00  0.00    +0.000 C 
ATOM      6  C   UNL     1       4.974   0.946   0.000  0.00  0.00    +0.000 C 
ATOM      7  C   UNL     1       4.236   0.505   0.000  0.00  0.00    +0.000 A 
ATOM      8  C   UNL     1       4.236  -0.320   0.000  0.00  0.00    +0.000 A 
ATOM      9  C   UNL     1       3.522   0.917   0.000  0.00  0.00    +0.000 A 
ATOM     10  C   UNL     1       3.522  -0.733   0.000  0.00  0.00    +0.000 A 
ATOM     11  C   UNL     1       2.808   0.505   0.000  0.00  0.00    +0.000 A 
ATOM     12  C   UNL     1       2.808  -0.320   0.000  0.00  0.00    +0.000 A 
ENDROOT
BRANCH   4  13
ATOM     13  C   UNL     1       6.434  -0.752   0.000  0.00  0.00    +0.000 A 
ATOM     14  C   UNL     1       7.150  -0.343   0.000  0.00  0.00    +0.000 A 
ATOM     15  C   UNL     1       6.431  -1.577   0.000  0.00  0.00    +0.000 A 
ATOM     16  C   UNL     1       7.863  -0.758   0.000  0.00  0.00    +0.000 A 
ATOM     17  C   UNL     1       7.144  -1.993   0.000  0.00  0.00    +0.000 A 
ATOM     18  C   UNL     1       7.860  -1.583   0.000  0.00  0.00    +0.000 A 
BRANCH  18  19
ATOM     19  O   UNL     1       8.573  -1.998   0.000  0.00  0.00    +0.000 OA
ATOM     20  C   UNL     1       9.289  -1.589   0.000  0.00  0.00    +0.000 C 
ENDBRANCH  18  19
ENDBRANCH   4  13
TORSDOF 2
