REMARK  Name = 15714484
REMARK  4 active torsions:
REMARK  status: ('A' for Active; 'I' for Inactive)
REMARK    1  A    between atoms: O_3  and  C_13
REMARK    2  A    between atoms: C_5  and  C_10
REMARK    3  A    between atoms: C_11  and  C_17
REMARK    4  A    between atoms: C_21  and  C_22
REMARK                            x       y       z     vdW  Elec       q    Type
REMARK                         _______ _______ _______ _____ _____    ______ ____
ROOT
ATOM      1  O   UNL     1       5.245  -0.157   0.000  0.00  0.00    +0.000 OA
ATOM      2  O   UNL     1       5.236   2.376   0.000  0.00  0.00    +0.000 OA
ATOM      3  O   UNL     1       3.793   2.347   0.000  0.00  0.00    +0.000 OA
ATOM      4  C   UNL     1       5.993   0.268   0.000  0.00  0.00    +0.000 C 
ATOM      5  C   UNL     1       5.993   1.127   0.000  0.00  0.00    +0.000 C 
ATOM      6  C   UNL     1       4.508   1.110   0.000  0.00  0.00    +0.000 A 
ATOM      7  C   UNL     1       4.508   0.285   0.000  0.00  0.00    +0.000 A 
ATOM      8  C   UNL     1       5.245   1.551   0.000  0.00  0.00    +0.000 C 
ATOM      9  C   UNL     1       3.793  -0.128   0.000  0.00  0.00    +0.000 A 
ATOM     10  C   UNL     1       3.793   1.522   0.000  0.00  0.00    +0.000 A 
ATOM     11  C   UNL     1       3.079   0.285   0.000  0.00  0.00    +0.000 A 
ATOM     12  C   UNL     1       3.079   1.110   0.000  0.00  0.00    +0.000 A 
ENDROOT
BRANCH   4  13
ATOM     13  C   UNL     1       6.706  -0.148   0.000  0.00  0.00    +0.000 A 
ATOM     14  C   UNL     1       6.703  -0.973   0.000  0.00  0.00    +0.000 A 
ATOM     15  C   UNL     1       7.422   0.262   0.000  0.00  0.00    +0.000 A 
ATOM     16  C   UNL     1       7.415  -1.388   0.000  0.00  0.00    +0.000 A 
ATOM     17  C   UNL     1       8.135  -0.153   0.000  0.00  0.00    +0.000 A 
ATOM     18  C   UNL     1       8.132  -0.978   0.000  0.00  0.00    +0.000 A 
ENDBRANCH   4  13
BRANCH  11  19
ATOM     19  O   UNL     1       2.364  -0.128   0.000  0.00  0.00    +0.000 OA
ATOM     20  C   UNL     1       1.650   0.285   0.000  0.00  0.00    +0.000 C 
ENDBRANCH  11  19
BRANCH   9  21
ATOM     21  C   UNL     1       3.793  -0.953   0.000  0.00  0.00    +0.000 C 
ATOM     22  C   UNL     1       3.079  -1.365   0.000  0.00  0.00    +0.000 C 
BRANCH  22  23
ATOM     23  C   UNL     1       3.079  -2.190   0.000  0.00  0.00    +0.000 C 
ATOM     24  C   UNL     1       2.364  -2.603   0.000  0.00  0.00    +0.000 C 
ATOM     25  C   UNL     1       3.793  -2.603   0.000  0.00  0.00    +0.000 C 
ENDBRANCH  22  23
ENDBRANCH   9  21
TORSDOF 4
