REMARK  Name = 6442389
REMARK  4 active torsions:
REMARK  status: ('A' for Active; 'I' for Inactive)
REMARK    1  A    between atoms: O_3  and  C_11
REMARK    2  A    between atoms: C_5  and  C_9
REMARK    3  A    between atoms: C_6  and  C_10
REMARK    4  A    between atoms: C_15  and  C_19
REMARK                            x       y       z     vdW  Elec       q    Type
REMARK                         _______ _______ _______ _____ _____    ______ ____
ROOT
ATOM      1  O   UNL     1       5.245   0.291   0.000  0.00  0.00    +0.000 OA
ATOM      2  O   UNL     1       5.236   2.823   0.000  0.00  0.00    +0.000 OA
ATOM      3  C   UNL     1       3.793   0.320   0.000  0.00  0.00    +0.000 A 
ATOM      4  C   UNL     1       4.508   0.732   0.000  0.00  0.00    +0.000 A 
ATOM      5  C   UNL     1       4.508   1.557   0.000  0.00  0.00    +0.000 A 
ATOM      6  C   UNL     1       3.079   0.732   0.000  0.00  0.00    +0.000 A 
ATOM      7  C   UNL     1       3.793   1.970   0.000  0.00  0.00    +0.000 A 
ATOM      8  C   UNL     1       5.993   0.715   0.000  0.00  0.00    +0.000 A 
ATOM      9  C   UNL     1       5.245   1.998   0.000  0.00  0.00    +0.000 A 
ATOM     10  C   UNL     1       3.079   1.557   0.000  0.00  0.00    +0.000 A 
ATOM     11  C   UNL     1       5.993   1.575   0.000  0.00  0.00    +0.000 A 
ENDROOT
BRANCH   8  12
ATOM     12  C   UNL     1       6.706   0.300   0.000  0.00  0.00    +0.000 A 
ATOM     13  C   UNL     1       6.703  -0.525   0.000  0.00  0.00    +0.000 A 
ATOM     14  C   UNL     1       7.422   0.710   0.000  0.00  0.00    +0.000 A 
ATOM     15  C   UNL     1       7.415  -0.940   0.000  0.00  0.00    +0.000 A 
ATOM     16  C   UNL     1       8.135   0.294   0.000  0.00  0.00    +0.000 A 
ATOM     17  C   UNL     1       8.132  -0.531   0.000  0.00  0.00    +0.000 A 
ENDBRANCH   8  12
BRANCH   6  18
ATOM     18  O   UNL     1       2.364   0.320   0.000  0.00  0.00    +0.000 OA
ATOM     19  C   UNL     1       1.650   0.732   0.000  0.00  0.00    +0.000 C 
ENDBRANCH   6  18
BRANCH   3  21
ATOM     20  C   UNL     1       3.079  -0.918   0.000  0.00  0.00    +0.000 C 
ATOM     21  C   UNL     1       3.793  -0.505   0.000  0.00  0.00    +0.000 C 
BRANCH  20  23
ATOM     22  O   UNL     1       3.079  -2.568   0.000  0.00  0.00    +0.000 OA
ATOM     23  C   UNL     1       3.079  -1.743   0.000  0.00  0.00    +0.000 C 
ATOM     24  C   UNL     1       2.254  -1.743   0.000  0.00  0.00    +0.000 C 
ATOM     25  C   UNL     1       3.904  -1.743   0.000  0.00  0.00    +0.000 C 
ENDBRANCH  20  23
ENDBRANCH   3  21
TORSDOF 4
