REMARK  Name = 14027571
REMARK  9 active torsions:
REMARK  status: ('A' for Active; 'I' for Inactive)
REMARK    1  A    between atoms: O_2  and  C_14
REMARK    2  A    between atoms: O_3  and  C_16
REMARK    3  A    between atoms: O_3  and  C_27
REMARK    4  A    between atoms: O_4  and  C_17
REMARK    5  A    between atoms: O_4  and  C_28
REMARK    6  A    between atoms: O_5  and  C_18
REMARK    7  A    between atoms: O_5  and  C_29
REMARK    8  A    between atoms: O_7  and  C_25
REMARK    9  A    between atoms: C_13  and  C_19
REMARK                            x       y       z     vdW  Elec       q    Type
REMARK                         _______ _______ _______ _____ _____    ______ ____
ROOT
ATOM      1  O   UNL     1       5.991  -0.843   0.000  0.00  0.00    +0.000 OA
ATOM      2  O   UNL     1       5.991   1.632   0.000  0.00  0.00    +0.000 OA
ATOM      3  C   UNL     1       5.277   0.394   0.000  0.00  0.00    +0.000 A 
ATOM      4  C   UNL     1       5.277  -0.431   0.000  0.00  0.00    +0.000 A 
ATOM      5  C   UNL     1       6.706  -0.431   0.000  0.00  0.00    +0.000 A 
ATOM      6  C   UNL     1       4.539  -0.872   0.000  0.00  0.00    +0.000 A 
ATOM      7  C   UNL     1       5.991   0.807   0.000  0.00  0.00    +0.000 A 
ATOM      8  C   UNL     1       4.539   0.835   0.000  0.00  0.00    +0.000 A 
ATOM      9  C   UNL     1       6.706   0.394   0.000  0.00  0.00    +0.000 A 
ATOM     10  C   UNL     1       3.792  -0.448   0.000  0.00  0.00    +0.000 A 
ATOM     11  C   UNL     1       3.792   0.411   0.000  0.00  0.00    +0.000 A 
ENDROOT
BRANCH   5  12
ATOM     12  C   UNL     1       7.420  -0.843   0.000  0.00  0.00    +0.000 A 
ATOM     13  C   UNL     1       8.135  -0.431   0.000  0.00  0.00    +0.000 A 
ATOM     14  C   UNL     1       7.420  -1.668   0.000  0.00  0.00    +0.000 A 
ATOM     15  C   UNL     1       8.849  -0.843   0.000  0.00  0.00    +0.000 A 
ATOM     16  C   UNL     1       8.135  -2.081   0.000  0.00  0.00    +0.000 A 
ATOM     17  C   UNL     1       8.849  -1.668   0.000  0.00  0.00    +0.000 A 
BRANCH  17  18
ATOM     18  O   UNL     1       9.564  -2.081   0.000  0.00  0.00    +0.000 OA
ATOM     19  C   UNL     1       9.564  -2.906   0.000  0.00  0.00    +0.000 C 
ENDBRANCH  17  18
ENDBRANCH   5  12
BRANCH   6  20
ATOM     20  O   UNL     1       4.549  -1.697   0.000  0.00  0.00    +0.000 OA
ATOM     21  C   UNL     1       3.839  -2.118   0.000  0.00  0.00    +0.000 C 
ENDBRANCH   6  20
BRANCH   8  22
ATOM     22  O   UNL     1       4.549   1.660   0.000  0.00  0.00    +0.000 OA
BRANCH  22  24
ATOM     23  O   UNL     1       3.120   1.677   0.000  0.00  0.00    +0.000 OA
ATOM     24  C   UNL     1       3.839   2.081   0.000  0.00  0.00    +0.000 C 
ATOM     25  C   UNL     1       3.849   2.906   0.000  0.00  0.00    +0.000 C 
ENDBRANCH  22  24
ENDBRANCH   8  22
BRANCH   9  26
ATOM     26  O   UNL     1       7.420   0.807   0.000  0.00  0.00    +0.000 OA
BRANCH  26  28
ATOM     27  O   UNL     1       6.706   2.044   0.000  0.00  0.00    +0.000 OA
ATOM     28  C   UNL     1       7.420   1.632   0.000  0.00  0.00    +0.000 C 
ATOM     29  C   UNL     1       8.135   2.044   0.000  0.00  0.00    +0.000 C 
ENDBRANCH  26  28
ENDBRANCH   9  26
BRANCH  10  30
ATOM     30  O   UNL     1       3.079  -0.863   0.000  0.00  0.00    +0.000 OA
BRANCH  30  32
ATOM     31  O   UNL     1       2.360   0.371   0.000  0.00  0.00    +0.000 OA
ATOM     32  C   UNL     1       2.363  -0.454   0.000  0.00  0.00    +0.000 C 
ATOM     33  C   UNL     1       1.650  -0.869   0.000  0.00  0.00    +0.000 C 
ENDBRANCH  30  32
ENDBRANCH  10  30
TORSDOF 9
