REMARK  Name = 44258656
REMARK  4 active torsions:
REMARK  status: ('A' for Active; 'I' for Inactive)
REMARK    1  A    between atoms: O_2  and  C_13
REMARK    2  A    between atoms: O_3  and  C_18
REMARK    3  A    between atoms: O_7  and  C_22
REMARK    4  A    between atoms: C_12  and  C_15
REMARK                            x       y       z     vdW  Elec       q    Type
REMARK                         _______ _______ _______ _____ _____    ______ ____
ROOT
ATOM      1  O   UNL     1       5.245  -0.505   0.000  0.00  0.00    +0.000 OA
ATOM      2  O   UNL     1       3.793   1.998   0.000  0.00  0.00    +0.000 OA
ATOM      3  O   UNL     1       2.364  -0.477   0.000  0.00  0.00    +0.000 OA
ATOM      4  O   UNL     1       5.236   2.027   0.000  0.00  0.00    +0.000 OA
ATOM      5  C   UNL     1       4.508   0.761   0.000  0.00  0.00    +0.000 A 
ATOM      6  C   UNL     1       4.508  -0.064   0.000  0.00  0.00    +0.000 A 
ATOM      7  C   UNL     1       5.993  -0.081   0.000  0.00  0.00    +0.000 A 
ATOM      8  C   UNL     1       3.793  -0.477   0.000  0.00  0.00    +0.000 A 
ATOM      9  C   UNL     1       3.793   1.173   0.000  0.00  0.00    +0.000 A 
ATOM     10  C   UNL     1       5.245   1.202   0.000  0.00  0.00    +0.000 A 
ATOM     11  C   UNL     1       5.993   0.778   0.000  0.00  0.00    +0.000 A 
ATOM     12  C   UNL     1       3.079   0.761   0.000  0.00  0.00    +0.000 A 
ATOM     13  C   UNL     1       3.079  -0.064   0.000  0.00  0.00    +0.000 A 
ENDROOT
BRANCH   7  16
ATOM     14  O   UNL     1       5.986  -1.731   0.000  0.00  0.00    +0.000 OA
ATOM     15  O   UNL     1       8.844  -1.742   0.000  0.00  0.00    +0.000 OA
ATOM     16  C   UNL     1       6.706  -0.497   0.000  0.00  0.00    +0.000 A 
ATOM     17  C   UNL     1       6.702  -1.322   0.000  0.00  0.00    +0.000 A 
ATOM     18  C   UNL     1       7.422  -0.087   0.000  0.00  0.00    +0.000 A 
ATOM     19  C   UNL     1       8.134  -0.502   0.000  0.00  0.00    +0.000 A 
ATOM     20  C   UNL     1       7.415  -1.737   0.000  0.00  0.00    +0.000 A 
ATOM     21  C   UNL     1       8.131  -1.327   0.000  0.00  0.00    +0.000 A 
BRANCH  19  22
ATOM     22  O   UNL     1       8.851  -0.092   0.000  0.00  0.00    +0.000 OA
ATOM     23  C   UNL     1       8.854   0.733   0.000  0.00  0.00    +0.000 C 
ENDBRANCH  19  22
ENDBRANCH   7  16
BRANCH   8  24
ATOM     24  O   UNL     1       3.793  -1.302   0.000  0.00  0.00    +0.000 OA
ATOM     25  C   UNL     1       3.079  -1.714   0.000  0.00  0.00    +0.000 C 
ENDBRANCH   8  24
BRANCH  12  26
ATOM     26  O   UNL     1       2.364   1.173   0.000  0.00  0.00    +0.000 OA
ATOM     27  C   UNL     1       1.650   0.761   0.000  0.00  0.00    +0.000 C 
ENDBRANCH  12  26
TORSDOF 4
