REMARK  Name = 44260043
REMARK  4 active torsions:
REMARK  status: ('A' for Active; 'I' for Inactive)
REMARK    1  A    between atoms: O_2  and  C_14
REMARK    2  A    between atoms: O_3  and  C_16
REMARK    3  A    between atoms: O_7  and  C_22
REMARK    4  A    between atoms: C_12  and  C_13
REMARK                            x       y       z     vdW  Elec       q    Type
REMARK                         _______ _______ _______ _____ _____    ______ ____
ROOT
ATOM      1  O   UNL     1       5.006  -0.508   0.000  0.00  0.00    +0.000 OA
ATOM      2  O   UNL     1       3.564   1.996   0.000  0.00  0.00    +0.000 OA
ATOM      3  O   UNL     1       5.006   1.967   0.000  0.00  0.00    +0.000 OA
ATOM      4  O   UNL     1       2.094  -0.528   0.000  0.00  0.00    +0.000 OA
ATOM      5  C   UNL     1       4.292   0.730   0.000  0.00  0.00    +0.000 A 
ATOM      6  C   UNL     1       4.292  -0.095   0.000  0.00  0.00    +0.000 A 
ATOM      7  C   UNL     1       5.721  -0.095   0.000  0.00  0.00    +0.000 A 
ATOM      8  C   UNL     1       5.721   0.730   0.000  0.00  0.00    +0.000 A 
ATOM      9  C   UNL     1       5.006   1.142   0.000  0.00  0.00    +0.000 A 
ATOM     10  C   UNL     1       3.554  -0.536   0.000  0.00  0.00    +0.000 A 
ATOM     11  C   UNL     1       3.554   1.171   0.000  0.00  0.00    +0.000 A 
ATOM     12  C   UNL     1       2.807  -0.112   0.000  0.00  0.00    +0.000 A 
ATOM     13  C   UNL     1       2.807   0.747   0.000  0.00  0.00    +0.000 A 
ENDROOT
BRANCH   7  16
ATOM     14  O   UNL     1       5.721  -1.745   0.000  0.00  0.00    +0.000 OA
ATOM     15  O   UNL     1       8.579  -1.745   0.000  0.00  0.00    +0.000 OA
ATOM     16  C   UNL     1       6.435  -0.508   0.000  0.00  0.00    +0.000 A 
ATOM     17  C   UNL     1       6.435  -1.333   0.000  0.00  0.00    +0.000 A 
ATOM     18  C   UNL     1       7.150  -0.095   0.000  0.00  0.00    +0.000 A 
ATOM     19  C   UNL     1       7.864  -0.508   0.000  0.00  0.00    +0.000 A 
ATOM     20  C   UNL     1       7.150  -1.745   0.000  0.00  0.00    +0.000 A 
ATOM     21  C   UNL     1       7.864  -1.333   0.000  0.00  0.00    +0.000 A 
BRANCH  19  22
ATOM     22  O   UNL     1       8.579  -0.095   0.000  0.00  0.00    +0.000 OA
ATOM     23  C   UNL     1       9.293  -0.508   0.000  0.00  0.00    +0.000 C 
ENDBRANCH  19  22
ENDBRANCH   7  16
BRANCH   8  24
ATOM     24  O   UNL     1       6.435   1.142   0.000  0.00  0.00    +0.000 OA
ATOM     25  C   UNL     1       6.435   1.967   0.000  0.00  0.00    +0.000 C 
ENDBRANCH   8  24
BRANCH  10  26
ATOM     26  O   UNL     1       3.564  -1.361   0.000  0.00  0.00    +0.000 OA
ATOM     27  C   UNL     1       2.854  -1.782   0.000  0.00  0.00    +0.000 C 
ENDBRANCH  10  26
TORSDOF 4
