REMARK  Name = 5386962
REMARK  4 active torsions:
REMARK  status: ('A' for Active; 'I' for Inactive)
REMARK    1  A    between atoms: O_2  and  C_13
REMARK    2  A    between atoms: O_3  and  C_15
REMARK    3  A    between atoms: O_4  and  C_17
REMARK    4  A    between atoms: C_12  and  C_18
REMARK                            x       y       z     vdW  Elec       q    Type
REMARK                         _______ _______ _______ _____ _____    ______ ____
ROOT
ATOM      1  O   UNL     1       5.245  -0.223   0.000  0.00  0.00    +0.000 OA
ATOM      2  O   UNL     1       3.793   2.281   0.000  0.00  0.00    +0.000 OA
ATOM      3  O   UNL     1       2.364  -0.194   0.000  0.00  0.00    +0.000 OA
ATOM      4  O   UNL     1       5.236   2.309   0.000  0.00  0.00    +0.000 OA
ATOM      5  C   UNL     1       4.508   1.044   0.000  0.00  0.00    +0.000 A 
ATOM      6  C   UNL     1       4.508   0.218   0.000  0.00  0.00    +0.000 A 
ATOM      7  C   UNL     1       5.993   0.201   0.000  0.00  0.00    +0.000 A 
ATOM      8  C   UNL     1       3.793  -0.194   0.000  0.00  0.00    +0.000 A 
ATOM      9  C   UNL     1       5.245   1.484   0.000  0.00  0.00    +0.000 A 
ATOM     10  C   UNL     1       5.993   1.061   0.000  0.00  0.00    +0.000 A 
ATOM     11  C   UNL     1       3.793   1.456   0.000  0.00  0.00    +0.000 A 
ATOM     12  C   UNL     1       3.079   1.044   0.000  0.00  0.00    +0.000 A 
ATOM     13  C   UNL     1       3.079   0.218   0.000  0.00  0.00    +0.000 A 
ENDROOT
BRANCH   7  16
ATOM     14  O   UNL     1       7.412  -2.279   0.000  0.00  0.00    +0.000 OA
ATOM     15  O   UNL     1       8.844  -1.460   0.000  0.00  0.00    +0.000 OA
ATOM     16  C   UNL     1       6.706  -0.214   0.000  0.00  0.00    +0.000 A 
ATOM     17  C   UNL     1       6.703  -1.039   0.000  0.00  0.00    +0.000 A 
ATOM     18  C   UNL     1       7.422   0.196   0.000  0.00  0.00    +0.000 A 
ATOM     19  C   UNL     1       7.415  -1.454   0.000  0.00  0.00    +0.000 A 
ATOM     20  C   UNL     1       8.135  -0.220   0.000  0.00  0.00    +0.000 A 
ATOM     21  C   UNL     1       8.132  -1.044   0.000  0.00  0.00    +0.000 A 
ENDBRANCH   7  16
BRANCH   8  22
ATOM     22  O   UNL     1       3.793  -1.019   0.000  0.00  0.00    +0.000 OA
ATOM     23  C   UNL     1       3.079  -1.431   0.000  0.00  0.00    +0.000 C 
ENDBRANCH   8  22
BRANCH  10  24
ATOM     24  O   UNL     1       6.706   1.476   0.000  0.00  0.00    +0.000 OA
ATOM     25  C   UNL     1       6.703   2.301   0.000  0.00  0.00    +0.000 C 
ENDBRANCH  10  24
BRANCH  12  26
ATOM     26  O   UNL     1       2.364   1.456   0.000  0.00  0.00    +0.000 OA
ATOM     27  C   UNL     1       1.650   1.044   0.000  0.00  0.00    +0.000 C 
ENDBRANCH  12  26
TORSDOF 4
