REMARK  Name = 14135321
REMARK  2 active torsions:
REMARK  status: ('A' for Active; 'I' for Inactive)
REMARK    1  A    between atoms: O_4  and  C_18
REMARK    2  A    between atoms: C_8  and  C_10
REMARK                            x       y       z     vdW  Elec       q    Type
REMARK                         _______ _______ _______ _____ _____    ______ ____
ROOT
ATOM      1  O   UNL     1       5.245  -0.511   0.000  0.00  0.00    +0.000 OA
ATOM      2  O   UNL     1       5.236   2.021   0.000  0.00  0.00    +0.000 OA
ATOM      3  O   UNL     1       3.793   1.993   0.000  0.00  0.00    +0.000 OA
ATOM      4  O   UNL     1       2.364  -0.482   0.000  0.00  0.00    +0.000 OA
ATOM      5  C   UNL     1       5.993  -0.087   0.000  0.00  0.00    +0.000 C 
ATOM      6  C   UNL     1       5.993   0.772   0.000  0.00  0.00    +0.000 C 
ATOM      7  C   UNL     1       4.508   0.755   0.000  0.00  0.00    +0.000 A 
ATOM      8  C   UNL     1       5.245   1.196   0.000  0.00  0.00    +0.000 C 
ATOM      9  C   UNL     1       4.508  -0.070   0.000  0.00  0.00    +0.000 A 
ATOM     10  C   UNL     1       3.793   1.168   0.000  0.00  0.00    +0.000 A 
ATOM     11  C   UNL     1       3.793  -0.482   0.000  0.00  0.00    +0.000 A 
ATOM     12  C   UNL     1       3.079   0.755   0.000  0.00  0.00    +0.000 A 
ATOM     13  C   UNL     1       3.079  -0.070   0.000  0.00  0.00    +0.000 A 
ENDROOT
BRANCH   5  16
ATOM     14  O   UNL     1       5.987  -1.737   0.000  0.00  0.00    +0.000 OA
ATOM     15  O   UNL     1       8.851  -0.098   0.000  0.00  0.00    +0.000 OA
ATOM     16  C   UNL     1       6.706  -0.502   0.000  0.00  0.00    +0.000 A 
ATOM     17  C   UNL     1       6.703  -1.327   0.000  0.00  0.00    +0.000 A 
ATOM     18  C   UNL     1       7.422  -0.092   0.000  0.00  0.00    +0.000 A 
ATOM     19  C   UNL     1       8.135  -0.508   0.000  0.00  0.00    +0.000 A 
ATOM     20  C   UNL     1       7.415  -1.742   0.000  0.00  0.00    +0.000 A 
ATOM     21  C   UNL     1       8.132  -1.333   0.000  0.00  0.00    +0.000 A 
ENDBRANCH   5  16
BRANCH  12  22
ATOM     22  O   UNL     1       2.364   1.168   0.000  0.00  0.00    +0.000 OA
ATOM     23  C   UNL     1       1.650   0.755   0.000  0.00  0.00    +0.000 C 
ENDBRANCH  12  22
TORSDOF 2
