REMARK  Name = 42608120
REMARK  2 active torsions:
REMARK  status: ('A' for Active; 'I' for Inactive)
REMARK    1  A    between atoms: O_2  and  C_14
REMARK    2  A    between atoms: C_8  and  C_11
REMARK                            x       y       z     vdW  Elec       q    Type
REMARK                         _______ _______ _______ _____ _____    ______ ____
ROOT
ATOM      1  O   UNL     1       4.974  -0.223   0.000  0.00  0.00    +0.000 OA
ATOM      2  O   UNL     1       4.964   2.309   0.000  0.00  0.00    +0.000 OA
ATOM      3  O   UNL     1       3.522   2.281   0.000  0.00  0.00    +0.000 OA
ATOM      4  O   UNL     1       2.093  -0.194   0.000  0.00  0.00    +0.000 OA
ATOM      5  C   UNL     1       5.721   0.201   0.000  0.00  0.00    +0.000 C 
ATOM      6  C   UNL     1       5.721   1.061   0.000  0.00  0.00    +0.000 C 
ATOM      7  C   UNL     1       4.236   1.044   0.000  0.00  0.00    +0.000 A 
ATOM      8  C   UNL     1       4.236   0.218   0.000  0.00  0.00    +0.000 A 
ATOM      9  C   UNL     1       4.974   1.484   0.000  0.00  0.00    +0.000 C 
ATOM     10  C   UNL     1       3.522  -0.194   0.000  0.00  0.00    +0.000 A 
ATOM     11  C   UNL     1       3.522   1.456   0.000  0.00  0.00    +0.000 A 
ATOM     12  C   UNL     1       2.808   0.218   0.000  0.00  0.00    +0.000 A 
ATOM     13  C   UNL     1       2.808   1.044   0.000  0.00  0.00    +0.000 A 
ENDROOT
BRANCH   5  16
ATOM     14  O   UNL     1       7.141  -2.279   0.000  0.00  0.00    +0.000 OA
ATOM     15  O   UNL     1       8.573  -1.460   0.000  0.00  0.00    +0.000 OA
ATOM     16  C   UNL     1       6.434  -0.214   0.000  0.00  0.00    +0.000 A 
ATOM     17  C   UNL     1       6.431  -1.039   0.000  0.00  0.00    +0.000 A 
ATOM     18  C   UNL     1       7.150   0.196   0.000  0.00  0.00    +0.000 A 
ATOM     19  C   UNL     1       7.144  -1.454   0.000  0.00  0.00    +0.000 A 
ATOM     20  C   UNL     1       7.863  -0.220   0.000  0.00  0.00    +0.000 A 
ATOM     21  C   UNL     1       7.860  -1.044   0.000  0.00  0.00    +0.000 A 
ENDBRANCH   5  16
BRANCH  10  22
ATOM     22  O   UNL     1       3.522  -1.019   0.000  0.00  0.00    +0.000 OA
ATOM     23  C   UNL     1       2.808  -1.431   0.000  0.00  0.00    +0.000 C 
ENDBRANCH  10  22
TORSDOF 2
