REMARK  Name = 131832478
REMARK  4 active torsions:
REMARK  status: ('A' for Active; 'I' for Inactive)
REMARK    1  A    between atoms: O_3  and  C_19
REMARK    2  A    between atoms: O_3  and  C_31
REMARK    3  A    between atoms: C_20  and  C_27
REMARK    4  A    between atoms: C_28  and  C_32
REMARK                            x       y       z     vdW  Elec       q    Type
REMARK                         _______ _______ _______ _____ _____    ______ ____
ROOT
ATOM      1  O   UNL     1       8.623   0.259   0.000  0.00  0.00    +0.000 OA
ATOM      2  O   UNL     1       7.767   2.762   0.000  0.00  0.00    +0.000 OA
ATOM      3  O   UNL     1       5.121   0.275   0.000  0.00  0.00    +0.000 OA
ATOM      4  O   UNL     1       6.031   1.769   0.000  0.00  0.00    +0.000 OA
ATOM      5  C   UNL     1       6.867  -1.804   0.000  0.00  0.00    +0.000 A 
ATOM      6  C   UNL     1       8.627   1.259   0.000  0.00  0.00    +0.000 A 
ATOM      7  C   UNL     1       7.755  -0.238   0.000  0.00  0.00    +0.000 A 
ATOM      8  C   UNL     1       7.767  -1.280   0.000  0.00  0.00    +0.000 A 
ATOM      9  C   UNL     1       6.891   0.265   0.000  0.00  0.00    +0.000 A 
ATOM     10  C   UNL     1       5.967  -1.280   0.000  0.00  0.00    +0.000 A 
ATOM     11  C   UNL     1       7.763   1.762   0.000  0.00  0.00    +0.000 A 
ATOM     12  C   UNL     1       5.979  -0.238   0.000  0.00  0.00    +0.000 A 
ATOM     13  C   UNL     1       6.895   1.265   0.000  0.00  0.00    +0.000 A 
ENDROOT
BRANCH   6  24
ATOM     14  O   UNL     1      12.145   3.304   0.000  0.00  0.00    +0.000 OA
ATOM     15  O   UNL     1      11.279   5.804   0.000  0.00  0.00    +0.000 OA
ATOM     16  C   UNL     1      12.145   4.304   0.000  0.00  0.00    +0.000 C 
ATOM     17  C   UNL     1      11.279   4.804   0.000  0.00  0.00    +0.000 C 
ATOM     18  C   UNL     1      10.413   4.304   0.000  0.00  0.00    +0.000 C 
ATOM     19  C   UNL     1      10.413   3.304   0.000  0.00  0.00    +0.000 A 
ATOM     20  C   UNL     1      11.279   2.804   0.000  0.00  0.00    +0.000 A 
ATOM     21  C   UNL     1      12.645   5.170   0.000  0.00  0.00    +0.000 C 
ATOM     22  C   UNL     1      13.145   4.304   0.000  0.00  0.00    +0.000 C 
ATOM     23  C   UNL     1       9.503   2.797   0.000  0.00  0.00    +0.000 A 
ATOM     24  C   UNL     1       9.495   1.755   0.000  0.00  0.00    +0.000 A 
ATOM     25  C   UNL     1      11.295   1.762   0.000  0.00  0.00    +0.000 A 
ATOM     26  C   UNL     1      10.397   1.234   0.000  0.00  0.00    +0.000 A 
ENDBRANCH   6  24
BRANCH   5  27
ATOM     27  O   UNL     1       6.867  -2.804   0.000  0.00  0.00    +0.000 OA
BRANCH  27  35
ATOM     28  O   UNL     1       5.135  -2.804   0.000  0.00  0.00    +0.000 OA
ATOM     29  O   UNL     1       5.135  -5.804   0.000  0.00  0.00    +0.000 OA
ATOM     30  O   UNL     1       6.867  -4.804   0.000  0.00  0.00    +0.000 OA
ATOM     31  O   UNL     1       3.403  -4.804   0.000  0.00  0.00    +0.000 OA
ATOM     32  C   UNL     1       5.135  -4.804   0.000  0.00  0.00    +0.000 C 
ATOM     33  C   UNL     1       6.001  -4.304   0.000  0.00  0.00    +0.000 C 
ATOM     34  C   UNL     1       4.269  -4.304   0.000  0.00  0.00    +0.000 C 
ATOM     35  C   UNL     1       6.001  -3.304   0.000  0.00  0.00    +0.000 C 
ATOM     36  C   UNL     1       4.269  -3.304   0.000  0.00  0.00    +0.000 C 
BRANCH  36  39
ATOM     37  O   UNL     1       2.537  -3.304   0.000  0.00  0.00    +0.000 OA
ATOM     38  O   UNL     1       3.403  -1.804   0.000  0.00  0.00    +0.000 OA
ATOM     39  C   UNL     1       3.403  -2.804   0.000  0.00  0.00    +0.000 C 
ENDBRANCH  36  39
ENDBRANCH  27  35
ENDBRANCH   5  27
TORSDOF 4
