REMARK  Name = 131752283
REMARK  14 active torsions:
REMARK  status: ('A' for Active; 'I' for Inactive)
REMARK    1  A    between atoms: O_1  and  C_24
REMARK    2  A    between atoms: O_1  and  C_29
REMARK    3  A    between atoms: O_10  and  C_36
REMARK    4  A    between atoms: O_10  and  C_51
REMARK    5  A    between atoms: O_15  and  C_46
REMARK    6  A    between atoms: O_15  and  C_53
REMARK    7  A    between atoms: O_22  and  C_63
REMARK    8  A    between atoms: C_26  and  C_34
REMARK    9  A    between atoms: C_28  and  C_35
REMARK   10  A    between atoms: C_33  and  C_36
REMARK   11  A    between atoms: C_45  and  C_48
REMARK   12  A    between atoms: C_49  and  C_52
REMARK   13  A    between atoms: C_51  and  C_58
REMARK   14  A    between atoms: C_59  and  C_60
REMARK                            x       y       z     vdW  Elec       q    Type
REMARK                         _______ _______ _______ _____ _____    ______ ____
ROOT
ATOM      1  O   UNL     1      11.381   1.394   0.000  0.00  0.00    +0.000 OA
ATOM      2  O   UNL     1       9.238   0.157   0.000  0.00  0.00    +0.000 OA
ATOM      3  O   UNL     1       9.238   1.807   0.000  0.00  0.00    +0.000 OA
ATOM      4  C   UNL     1      10.667   0.157   0.000  0.00  0.00    +0.000 C 
ATOM      5  C   UNL     1       9.952   0.569   0.000  0.00  0.00    +0.000 C 
ATOM      6  C   UNL     1      11.381   0.569   0.000  0.00  0.00    +0.000 C 
ATOM      7  C   UNL     1       9.952   1.394   0.000  0.00  0.00    +0.000 C 
ATOM      8  C   UNL     1      10.667   1.807   0.000  0.00  0.00    +0.000 C 
ENDROOT
BRANCH   6  13
ATOM      9  O   UNL     1      12.810   1.394   0.000  0.00  0.00    +0.000 OA
ATOM     10  O   UNL     1      11.381  -1.081   0.000  0.00  0.00    +0.000 OA
ATOM     11  O   UNL     1      14.262  -1.109   0.000  0.00  0.00    +0.000 OA
ATOM     12  O   UNL     1      14.253   1.423   0.000  0.00  0.00    +0.000 OA
ATOM     13  C   UNL     1      12.096   0.157   0.000  0.00  0.00    +0.000 A 
ATOM     14  C   UNL     1      12.810   0.569   0.000  0.00  0.00    +0.000 A 
ATOM     15  C   UNL     1      12.096  -0.668   0.000  0.00  0.00    +0.000 A 
ATOM     16  C   UNL     1      13.525   0.157   0.000  0.00  0.00    +0.000 A 
ATOM     17  C   UNL     1      12.810  -1.081   0.000  0.00  0.00    +0.000 A 
ATOM     18  C   UNL     1      13.525  -0.668   0.000  0.00  0.00    +0.000 A 
ATOM     19  C   UNL     1      14.262   0.598   0.000  0.00  0.00    +0.000 A 
ATOM     20  C   UNL     1      15.010  -0.685   0.000  0.00  0.00    +0.000 A 
ATOM     21  C   UNL     1      15.010   0.174   0.000  0.00  0.00    +0.000 A 
BRANCH  20  22
ATOM     22  C   UNL     1      15.723  -1.101   0.000  0.00  0.00    +0.000 A 
ATOM     23  C   UNL     1      17.148  -1.931   0.000  0.00  0.00    +0.000 A 
ATOM     24  C   UNL     1      15.719  -1.926   0.000  0.00  0.00    +0.000 A 
ATOM     25  C   UNL     1      16.439  -0.691   0.000  0.00  0.00    +0.000 A 
ATOM     26  C   UNL     1      16.432  -2.341   0.000  0.00  0.00    +0.000 A 
ATOM     27  C   UNL     1      17.151  -1.106   0.000  0.00  0.00    +0.000 A 
BRANCH  23  28
ATOM     28  O   UNL     1      17.861  -2.346   0.000  0.00  0.00    +0.000 OA
BRANCH  28  37
ATOM     29  O   UNL     1      18.580  -1.112   0.000  0.00  0.00    +0.000 OA
ATOM     30  O   UNL     1      20.719  -2.357   0.000  0.00  0.00    +0.000 OA
ATOM     31  O   UNL     1      20.725  -0.707   0.000  0.00  0.00    +0.000 OA
ATOM     32  O   UNL     1      19.287  -3.177   0.000  0.00  0.00    +0.000 OA
ATOM     33  C   UNL     1      20.006  -1.942   0.000  0.00  0.00    +0.000 C 
ATOM     34  C   UNL     1      20.009  -1.117   0.000  0.00  0.00    +0.000 C 
ATOM     35  C   UNL     1      19.290  -2.352   0.000  0.00  0.00    +0.000 C 
ATOM     36  C   UNL     1      19.297  -0.702   0.000  0.00  0.00    +0.000 C 
ATOM     37  C   UNL     1      18.577  -1.937   0.000  0.00  0.00    +0.000 C 
BRANCH  36  39
ATOM     38  O   UNL     1      20.016   0.533   0.000  0.00  0.00    +0.000 OA
ATOM     39  C   UNL     1      19.300   0.123   0.000  0.00  0.00    +0.000 C 
ENDBRANCH  36  39
ENDBRANCH  28  37
ENDBRANCH  23  28
ENDBRANCH  20  22
ENDBRANCH   6  13
BRANCH   8  41
ATOM     40  O   UNL     1       9.952   3.044   0.000  0.00  0.00    +0.000 OA
ATOM     41  C   UNL     1      10.667   2.632   0.000  0.00  0.00    +0.000 C 
ENDBRANCH   8  41
BRANCH   4  42
ATOM     42  O   UNL     1      10.667  -0.668   0.000  0.00  0.00    +0.000 OA
BRANCH  42  47
ATOM     43  O   UNL     1       9.238  -0.668   0.000  0.00  0.00    +0.000 OA
ATOM     44  O   UNL     1      10.667  -2.318   0.000  0.00  0.00    +0.000 OA
ATOM     45  O   UNL     1       9.238  -3.143   0.000  0.00  0.00    +0.000 OA
ATOM     46  O   UNL     1       7.809  -2.318   0.000  0.00  0.00    +0.000 OA
ATOM     47  C   UNL     1       9.952  -1.081   0.000  0.00  0.00    +0.000 C 
ATOM     48  C   UNL     1       9.952  -1.906   0.000  0.00  0.00    +0.000 C 
ATOM     49  C   UNL     1       9.238  -2.318   0.000  0.00  0.00    +0.000 C 
ATOM     50  C   UNL     1       8.523  -1.906   0.000  0.00  0.00    +0.000 C 
ATOM     51  C   UNL     1       8.523  -1.081   0.000  0.00  0.00    +0.000 C 
BRANCH  51  52
ATOM     52  C   UNL     1       7.809  -0.668   0.000  0.00  0.00    +0.000 C 
BRANCH  52  53
ATOM     53  O   UNL     1       7.094  -1.081   0.000  0.00  0.00    +0.000 OA
BRANCH  53  55
ATOM     54  O   UNL     1       6.380   0.157   0.000  0.00  0.00    +0.000 OA
ATOM     55  C   UNL     1       6.380  -0.668   0.000  0.00  0.00    +0.000 C 
BRANCH  55  56
ATOM     56  C   UNL     1       5.665  -1.081   0.000  0.00  0.00    +0.000 C 
ATOM     57  C   UNL     1       4.951  -0.668   0.000  0.00  0.00    +0.000 C 
BRANCH  57  59
ATOM     58  O   UNL     1       2.093  -2.318   0.000  0.00  0.00    +0.000 OA
ATOM     59  C   UNL     1       4.236  -1.081   0.000  0.00  0.00    +0.000 A 
ATOM     60  C   UNL     1       4.236  -1.906   0.000  0.00  0.00    +0.000 A 
ATOM     61  C   UNL     1       3.522  -0.668   0.000  0.00  0.00    +0.000 A 
ATOM     62  C   UNL     1       3.522  -2.318   0.000  0.00  0.00    +0.000 A 
ATOM     63  C   UNL     1       2.808  -1.081   0.000  0.00  0.00    +0.000 A 
ATOM     64  C   UNL     1       2.808  -1.906   0.000  0.00  0.00    +0.000 A 
BRANCH  62  65
ATOM     65  O   UNL     1       3.522  -3.143   0.000  0.00  0.00    +0.000 OA
ATOM     66  C   UNL     1       2.808  -3.556   0.000  0.00  0.00    +0.000 C 
ENDBRANCH  62  65
ENDBRANCH  57  59
ENDBRANCH  55  56
ENDBRANCH  53  55
ENDBRANCH  52  53
ENDBRANCH  51  52
ENDBRANCH  42  47
ENDBRANCH   4  42
TORSDOF 14
