REMARK  Name = 131833340
REMARK  7 active torsions:
REMARK  status: ('A' for Active; 'I' for Inactive)
REMARK    1  A    between atoms: S_1  and  O_4
REMARK    2  A    between atoms: O_4  and  C_25
REMARK    3  A    between atoms: C_21  and  C_30
REMARK    4  A    between atoms: C_23  and  C_32
REMARK    5  A    between atoms: C_27  and  C_36
REMARK    6  A    between atoms: C_31  and  C_38
REMARK    7  A    between atoms: C_40  and  C_42
REMARK                            x       y       z     vdW  Elec       q    Type
REMARK                         _______ _______ _______ _____ _____    ______ ____
ROOT
ATOM      1  O   UNL     1       9.493  -0.630   0.000  0.00  0.00    +0.000 OA
ATOM      2  O   UNL     1       6.001  -0.595   0.000  0.00  0.00    +0.000 OA
ATOM      3  O   UNL     1       7.733   2.405   0.000  0.00  0.00    +0.000 OA
ATOM      4  O   UNL     1       9.482   2.440   0.000  0.00  0.00    +0.000 OA
ATOM      5  C   UNL     1       6.867   0.905   0.000  0.00  0.00    +0.000 A 
ATOM      6  C   UNL     1       7.733  -0.595   0.000  0.00  0.00    +0.000 A 
ATOM      7  C   UNL     1       6.867  -0.095   0.000  0.00  0.00    +0.000 A 
ATOM      8  C   UNL     1       8.599  -0.095   0.000  0.00  0.00    +0.000 A 
ATOM      9  C   UNL     1       7.733   1.405   0.000  0.00  0.00    +0.000 A 
ATOM     10  C   UNL     1       8.599   0.905   0.000  0.00  0.00    +0.000 A 
ATOM     11  C   UNL     1       9.493   1.440   0.000  0.00  0.00    +0.000 A 
ATOM     12  C   UNL     1      10.399  -0.116   0.000  0.00  0.00    +0.000 A 
ATOM     13  C   UNL     1      10.399   0.926   0.000  0.00  0.00    +0.000 A 
ENDROOT
BRANCH   6  18
ATOM     14  O   UNL     1       8.599  -2.095   0.000  0.00  0.00    +0.000 OA
ATOM     15  O   UNL     1       6.001  -1.595   0.000  0.00  0.00    +0.000 OA
ATOM     16  O   UNL     1       6.001  -3.595   0.000  0.00  0.00    +0.000 OA
ATOM     17  O   UNL     1       7.733  -4.595   0.000  0.00  0.00    +0.000 OA
ATOM     18  C   UNL     1       7.733  -1.595   0.000  0.00  0.00    +0.000 C 
ATOM     19  C   UNL     1       6.867  -2.095   0.000  0.00  0.00    +0.000 C 
ATOM     20  C   UNL     1       6.867  -3.095   0.000  0.00  0.00    +0.000 C 
ATOM     21  C   UNL     1       7.733  -3.595   0.000  0.00  0.00    +0.000 C 
ATOM     22  C   UNL     1       8.599  -3.095   0.000  0.00  0.00    +0.000 C 
BRANCH  22  24
ATOM     23  O   UNL     1       9.465  -4.595   0.000  0.00  0.00    +0.000 OA
ATOM     24  C   UNL     1       9.465  -3.595   0.000  0.00  0.00    +0.000 C 
ENDBRANCH  22  24
ENDBRANCH   6  18
BRANCH   5  28
ATOM     25  O   UNL     1       5.135   0.905   0.000  0.00  0.00    +0.000 OA
ATOM     26  O   UNL     1       6.867   2.905   0.000  0.00  0.00    +0.000 OA
ATOM     27  O   UNL     1       5.135   3.905   0.000  0.00  0.00    +0.000 OA
ATOM     28  C   UNL     1       6.001   1.405   0.000  0.00  0.00    +0.000 C 
ATOM     29  C   UNL     1       6.001   2.405   0.000  0.00  0.00    +0.000 C 
ATOM     30  C   UNL     1       5.135   2.905   0.000  0.00  0.00    +0.000 C 
ATOM     31  C   UNL     1       4.269   2.405   0.000  0.00  0.00    +0.000 C 
ATOM     32  C   UNL     1       4.269   1.405   0.000  0.00  0.00    +0.000 C 
BRANCH  32  34
ATOM     33  O   UNL     1       2.537   1.405   0.000  0.00  0.00    +0.000 OA
ATOM     34  C   UNL     1       3.403   0.905   0.000  0.00  0.00    +0.000 C 
ENDBRANCH  32  34
BRANCH  31  35
ATOM     35  O   UNL     1       3.403   2.905   0.000  0.00  0.00    +0.000 OA
BRANCH  35  36
ATOM     36  S   UNL     1       3.403   3.905   0.000  0.00  0.00    +0.000 S 
ATOM     37  O   UNL     1       2.403   3.905   0.000  0.00  0.00    +0.000 OA
ATOM     38  O   UNL     1       3.403   4.905   0.000  0.00  0.00    +0.000 OA
ATOM     39  O   UNL     1       4.403   3.905   0.000  0.00  0.00    +0.000 OA
ENDBRANCH  35  36
ENDBRANCH  31  35
ENDBRANCH   5  28
BRANCH  12  42
ATOM     40  O   UNL     1      12.120  -3.123   0.000  0.00  0.00    +0.000 OA
ATOM     41  O   UNL     1      13.855  -2.129   0.000  0.00  0.00    +0.000 OA
ATOM     42  C   UNL     1      11.263  -0.619   0.000  0.00  0.00    +0.000 A 
ATOM     43  C   UNL     1      11.259  -1.619   0.000  0.00  0.00    +0.000 A 
ATOM     44  C   UNL     1      12.131  -0.122   0.000  0.00  0.00    +0.000 A 
ATOM     45  C   UNL     1      12.123  -2.123   0.000  0.00  0.00    +0.000 A 
ATOM     46  C   UNL     1      12.995  -0.626   0.000  0.00  0.00    +0.000 A 
ATOM     47  C   UNL     1      12.991  -1.626   0.000  0.00  0.00    +0.000 A 
ENDBRANCH  12  42
TORSDOF 7
