REMARK  Name = 131833367
REMARK  8 active torsions:
REMARK  status: ('A' for Active; 'I' for Inactive)
REMARK    1  A    between atoms: O_15  and  C_47
REMARK    2  A    between atoms: O_15  and  C_51
REMARK    3  A    between atoms: C_24  and  C_33
REMARK    4  A    between atoms: C_25  and  C_35
REMARK    5  A    between atoms: C_32  and  C_40
REMARK    6  A    between atoms: C_34  and  C_41
REMARK    7  A    between atoms: C_45  and  C_50
REMARK    8  A    between atoms: C_48  and  C_52
REMARK                            x       y       z     vdW  Elec       q    Type
REMARK                         _______ _______ _______ _____ _____    ______ ____
ROOT
ATOM      1  O   UNL     1       8.966   0.672   0.000  0.00  0.00    +0.000 OA
ATOM      2  O   UNL     1      12.458   0.651   0.000  0.00  0.00    +0.000 OA
ATOM      3  O   UNL     1      10.738  -2.356   0.000  0.00  0.00    +0.000 OA
ATOM      4  O   UNL     1       8.990  -2.397   0.000  0.00  0.00    +0.000 OA
ATOM      5  C   UNL     1      10.726   0.644   0.000  0.00  0.00    +0.000 A 
ATOM      6  C   UNL     1      11.598  -0.853   0.000  0.00  0.00    +0.000 A 
ATOM      7  C   UNL     1      11.594   0.147   0.000  0.00  0.00    +0.000 A 
ATOM      8  C   UNL     1       9.862   0.141   0.000  0.00  0.00    +0.000 A 
ATOM      9  C   UNL     1      10.734  -1.356   0.000  0.00  0.00    +0.000 A 
ATOM     10  C   UNL     1       9.866  -0.859   0.000  0.00  0.00    +0.000 A 
ATOM     11  C   UNL     1       8.974  -1.397   0.000  0.00  0.00    +0.000 A 
ATOM     12  C   UNL     1       8.062   0.154   0.000  0.00  0.00    +0.000 A 
ATOM     13  C   UNL     1       8.066  -0.887   0.000  0.00  0.00    +0.000 A 
ENDROOT
BRANCH   5  18
ATOM     14  O   UNL     1      11.587   2.147   0.000  0.00  0.00    +0.000 OA
ATOM     15  O   UNL     1       8.990   1.637   0.000  0.00  0.00    +0.000 OA
ATOM     16  O   UNL     1       8.983   3.637   0.000  0.00  0.00    +0.000 OA
ATOM     17  O   UNL     1      10.711   4.644   0.000  0.00  0.00    +0.000 OA
ATOM     18  C   UNL     1      10.723   1.644   0.000  0.00  0.00    +0.000 C 
ATOM     19  C   UNL     1       9.854   2.141   0.000  0.00  0.00    +0.000 C 
ATOM     20  C   UNL     1       9.851   3.141   0.000  0.00  0.00    +0.000 C 
ATOM     21  C   UNL     1      10.715   3.644   0.000  0.00  0.00    +0.000 C 
ATOM     22  C   UNL     1      11.583   3.147   0.000  0.00  0.00    +0.000 C 
BRANCH  22  24
ATOM     23  O   UNL     1      12.443   4.651   0.000  0.00  0.00    +0.000 OA
ATOM     24  C   UNL     1      12.447   3.651   0.000  0.00  0.00    +0.000 C 
ENDBRANCH  22  24
ENDBRANCH   5  18
BRANCH   6  29
ATOM     25  O   UNL     1      12.470  -2.349   0.000  0.00  0.00    +0.000 OA
ATOM     26  O   UNL     1      13.326   0.154   0.000  0.00  0.00    +0.000 OA
ATOM     27  O   UNL     1      15.062  -0.839   0.000  0.00  0.00    +0.000 OA
ATOM     28  O   UNL     1      15.070  -2.839   0.000  0.00  0.00    +0.000 OA
ATOM     29  C   UNL     1      12.466  -1.349   0.000  0.00  0.00    +0.000 C 
ATOM     30  C   UNL     1      13.330  -0.846   0.000  0.00  0.00    +0.000 C 
ATOM     31  C   UNL     1      14.198  -1.343   0.000  0.00  0.00    +0.000 C 
ATOM     32  C   UNL     1      14.202  -2.343   0.000  0.00  0.00    +0.000 C 
ATOM     33  C   UNL     1      13.338  -2.846   0.000  0.00  0.00    +0.000 C 
BRANCH  33  35
ATOM     34  O   UNL     1      14.210  -4.343   0.000  0.00  0.00    +0.000 OA
ATOM     35  C   UNL     1      13.342  -3.846   0.000  0.00  0.00    +0.000 C 
ENDBRANCH  33  35
ENDBRANCH   6  29
BRANCH  12  38
ATOM     36  O   UNL     1       6.330   3.155   0.000  0.00  0.00    +0.000 OA
ATOM     37  O   UNL     1       4.598   2.155   0.000  0.00  0.00    +0.000 OA
ATOM     38  C   UNL     1       7.196   0.654   0.000  0.00  0.00    +0.000 A 
ATOM     39  C   UNL     1       6.330   0.154   0.000  0.00  0.00    +0.000 A 
ATOM     40  C   UNL     1       7.196   1.655   0.000  0.00  0.00    +0.000 A 
ATOM     41  C   UNL     1       5.464   0.654   0.000  0.00  0.00    +0.000 A 
ATOM     42  C   UNL     1       6.330   2.155   0.000  0.00  0.00    +0.000 A 
ATOM     43  C   UNL     1       5.464   1.655   0.000  0.00  0.00    +0.000 A 
BRANCH  39  44
ATOM     44  O   UNL     1       6.330  -0.846   0.000  0.00  0.00    +0.000 OA
BRANCH  44  52
ATOM     45  O   UNL     1       4.598  -0.846   0.000  0.00  0.00    +0.000 OA
ATOM     46  O   UNL     1       4.598  -3.845   0.000  0.00  0.00    +0.000 OA
ATOM     47  O   UNL     1       6.330  -2.845   0.000  0.00  0.00    +0.000 OA
ATOM     48  O   UNL     1       2.866  -2.845   0.000  0.00  0.00    +0.000 OA
ATOM     49  C   UNL     1       4.598  -2.845   0.000  0.00  0.00    +0.000 C 
ATOM     50  C   UNL     1       5.464  -2.345   0.000  0.00  0.00    +0.000 C 
ATOM     51  C   UNL     1       3.732  -2.345   0.000  0.00  0.00    +0.000 C 
ATOM     52  C   UNL     1       5.464  -1.345   0.000  0.00  0.00    +0.000 C 
ATOM     53  C   UNL     1       3.732  -1.345   0.000  0.00  0.00    +0.000 C 
BRANCH  53  56
ATOM     54  O   UNL     1       2.000  -1.345   0.000  0.00  0.00    +0.000 OA
ATOM     55  O   UNL     1       2.866   0.154   0.000  0.00  0.00    +0.000 OA
ATOM     56  C   UNL     1       2.866  -0.846   0.000  0.00  0.00    +0.000 C 
ENDBRANCH  53  56
ENDBRANCH  44  52
ENDBRANCH  39  44
ENDBRANCH  12  38
TORSDOF 8
