REMARK  Name = 131750881
REMARK  16 active torsions:
REMARK  status: ('A' for Active; 'I' for Inactive)
REMARK    1  A    between atoms: O_2  and  C_18
REMARK    2  A    between atoms: O_2  and  C_25
REMARK    3  A    between atoms: O_3  and  C_19
REMARK    4  A    between atoms: O_3  and  C_26
REMARK    5  A    between atoms: O_4  and  C_20
REMARK    6  A    between atoms: O_4  and  C_27
REMARK    7  A    between atoms: O_5  and  C_22
REMARK    8  A    between atoms: O_5  and  C_24
REMARK    9  A    between atoms: O_6  and  C_23
REMARK   10  A    between atoms: O_6  and  C_31
REMARK   11  A    between atoms: C_21  and  C_23
REMARK   12  A    between atoms: C_26  and  C_32
REMARK   13  A    between atoms: C_27  and  C_34
REMARK   14  A    between atoms: C_28  and  C_35
REMARK   15  A    between atoms: C_39  and  C_46
REMARK   16  A    between atoms: C_40  and  C_47
REMARK                            x       y       z     vdW  Elec       q    Type
REMARK                         _______ _______ _______ _____ _____    ______ ____
ROOT
ATOM      1  O   UNL     1       8.523   0.511   0.000  0.00  0.00    +0.000 OA
ATOM      2  C   UNL     1       8.523  -1.139   0.000  0.00  0.00    +0.000 C 
ATOM      3  C   UNL     1       7.809  -0.727   0.000  0.00  0.00    +0.000 C 
ATOM      4  C   UNL     1       9.238  -0.727   0.000  0.00  0.00    +0.000 C 
ATOM      5  C   UNL     1       7.809   0.098   0.000  0.00  0.00    +0.000 C 
ATOM      6  C   UNL     1       9.238   0.098   0.000  0.00  0.00    +0.000 C 
ENDROOT
BRANCH   6   7
ATOM      7  O   UNL     1       9.952   0.511   0.000  0.00  0.00    +0.000 OA
BRANCH   7  12
ATOM      8  O   UNL     1      10.667   2.574   0.000  0.00  0.00    +0.000 OA
ATOM      9  O   UNL     1       8.523   1.336   0.000  0.00  0.00    +0.000 OA
ATOM     10  O   UNL     1       7.777   2.571   0.000  0.00  0.00    +0.000 OA
ATOM     11  O   UNL     1       9.228   5.106   0.000  0.00  0.00    +0.000 OA
ATOM     12  C   UNL     1       9.952   1.336   0.000  0.00  0.00    +0.000 A 
ATOM     13  C   UNL     1      10.667   1.748   0.000  0.00  0.00    +0.000 A 
ATOM     14  C   UNL     1       9.238   1.748   0.000  0.00  0.00    +0.000 A 
ATOM     15  C   UNL     1       9.238   2.574   0.000  0.00  0.00    +0.000 A 
ATOM     16  C   UNL     1       9.952   2.986   0.000  0.00  0.00    +0.000 A 
ATOM     17  C   UNL     1       8.487   2.992   0.000  0.00  0.00    +0.000 A 
ATOM     18  C   UNL     1       9.966   3.845   0.000  0.00  0.00    +0.000 A 
ATOM     19  C   UNL     1       8.480   3.851   0.000  0.00  0.00    +0.000 A 
ATOM     20  C   UNL     1       9.225   4.281   0.000  0.00  0.00    +0.000 A 
BRANCH  13  22
ATOM     21  O   UNL     1      13.525   0.098   0.000  0.00  0.00    +0.000 OA
ATOM     22  C   UNL     1      11.381   1.336   0.000  0.00  0.00    +0.000 A 
ATOM     23  C   UNL     1      11.381   0.511   0.000  0.00  0.00    +0.000 A 
ATOM     24  C   UNL     1      12.096   1.748   0.000  0.00  0.00    +0.000 A 
ATOM     25  C   UNL     1      12.096   0.098   0.000  0.00  0.00    +0.000 A 
ATOM     26  C   UNL     1      12.810   1.336   0.000  0.00  0.00    +0.000 A 
ATOM     27  C   UNL     1      12.810   0.511   0.000  0.00  0.00    +0.000 A 
ENDBRANCH  13  22
ENDBRANCH   7  12
ENDBRANCH   6   7
BRANCH   4  28
ATOM     28  O   UNL     1       9.952  -1.139   0.000  0.00  0.00    +0.000 OA
BRANCH  28  30
ATOM     29  O   UNL     1       9.238  -2.377   0.000  0.00  0.00    +0.000 OA
ATOM     30  C   UNL     1       9.952  -1.964   0.000  0.00  0.00    +0.000 C 
BRANCH  30  31
ATOM     31  C   UNL     1      10.667  -2.377   0.000  0.00  0.00    +0.000 C 
ATOM     32  C   UNL     1      10.667  -3.202   0.000  0.00  0.00    +0.000 C 
BRANCH  32  34
ATOM     33  O   UNL     1       7.809  -4.852   0.000  0.00  0.00    +0.000 OA
ATOM     34  C   UNL     1       9.952  -3.614   0.000  0.00  0.00    +0.000 A 
ATOM     35  C   UNL     1       9.952  -4.439   0.000  0.00  0.00    +0.000 A 
ATOM     36  C   UNL     1       9.238  -3.202   0.000  0.00  0.00    +0.000 A 
ATOM     37  C   UNL     1       9.238  -4.852   0.000  0.00  0.00    +0.000 A 
ATOM     38  C   UNL     1       8.523  -3.614   0.000  0.00  0.00    +0.000 A 
ATOM     39  C   UNL     1       8.523  -4.439   0.000  0.00  0.00    +0.000 A 
ENDBRANCH  32  34
ENDBRANCH  30  31
ENDBRANCH  28  30
ENDBRANCH   4  28
BRANCH   5  40
ATOM     40  C   UNL     1       7.094   0.511   0.000  0.00  0.00    +0.000 C 
BRANCH  40  41
ATOM     41  O   UNL     1       7.094   1.336   0.000  0.00  0.00    +0.000 OA
BRANCH  41  43
ATOM     42  O   UNL     1       5.665   1.336   0.000  0.00  0.00    +0.000 OA
ATOM     43  C   UNL     1       6.380   1.748   0.000  0.00  0.00    +0.000 C 
ATOM     44  C   UNL     1       6.380   2.574   0.000  0.00  0.00    +0.000 C 
ENDBRANCH  41  43
ENDBRANCH  40  41
ENDBRANCH   5  40
BRANCH   3  45
ATOM     45  O   UNL     1       7.094  -1.139   0.000  0.00  0.00    +0.000 OA
BRANCH  45  47
ATOM     46  O   UNL     1       6.380   0.098   0.000  0.00  0.00    +0.000 OA
ATOM     47  C   UNL     1       6.380  -0.727   0.000  0.00  0.00    +0.000 C 
BRANCH  47  48
ATOM     48  C   UNL     1       5.665  -1.139   0.000  0.00  0.00    +0.000 C 
ATOM     49  C   UNL     1       4.951  -0.727   0.000  0.00  0.00    +0.000 C 
BRANCH  49  51
ATOM     50  O   UNL     1       2.093  -2.377   0.000  0.00  0.00    +0.000 OA
ATOM     51  C   UNL     1       4.237  -1.139   0.000  0.00  0.00    +0.000 A 
ATOM     52  C   UNL     1       4.237  -1.964   0.000  0.00  0.00    +0.000 A 
ATOM     53  C   UNL     1       3.522  -0.727   0.000  0.00  0.00    +0.000 A 
ATOM     54  C   UNL     1       3.522  -2.377   0.000  0.00  0.00    +0.000 A 
ATOM     55  C   UNL     1       2.808  -1.139   0.000  0.00  0.00    +0.000 A 
ATOM     56  C   UNL     1       2.808  -1.964   0.000  0.00  0.00    +0.000 A 
ENDBRANCH  49  51
ENDBRANCH  47  48
ENDBRANCH  45  47
ENDBRANCH   3  45
BRANCH   2  57
ATOM     57  O   UNL     1       8.523  -1.964   0.000  0.00  0.00    +0.000 OA
BRANCH  57  59
ATOM     58  O   UNL     1       7.094  -1.964   0.000  0.00  0.00    +0.000 OA
ATOM     59  C   UNL     1       7.809  -2.377   0.000  0.00  0.00    +0.000 C 
ATOM     60  C   UNL     1       7.809  -3.202   0.000  0.00  0.00    +0.000 C 
ENDBRANCH  57  59
ENDBRANCH   2  57
TORSDOF 16
