REMARK  Name = 131833284
REMARK  6 active torsions:
REMARK  status: ('A' for Active; 'I' for Inactive)
REMARK    1  A    between atoms: S_1  and  O_11
REMARK    2  A    between atoms: O_11  and  C_33
REMARK    3  A    between atoms: C_21  and  C_26
REMARK    4  A    between atoms: C_25  and  C_33
REMARK    5  A    between atoms: C_27  and  C_29
REMARK    6  A    between atoms: C_39  and  C_41
REMARK                            x       y       z     vdW  Elec       q    Type
REMARK                         _______ _______ _______ _____ _____    ______ ____
ROOT
ATOM      1  O   UNL     1       9.261  -0.235   0.000  0.00  0.00    +0.000 OA
ATOM      2  O   UNL     1       6.380  -0.206   0.000  0.00  0.00    +0.000 OA
ATOM      3  O   UNL     1       7.809   2.269   0.000  0.00  0.00    +0.000 OA
ATOM      4  O   UNL     1       9.251   2.297   0.000  0.00  0.00    +0.000 OA
ATOM      5  C   UNL     1       7.094   1.031   0.000  0.00  0.00    +0.000 A 
ATOM      6  C   UNL     1       7.809  -0.206   0.000  0.00  0.00    +0.000 A 
ATOM      7  C   UNL     1       7.094   0.206   0.000  0.00  0.00    +0.000 A 
ATOM      8  C   UNL     1       7.809   1.444   0.000  0.00  0.00    +0.000 A 
ATOM      9  C   UNL     1       8.523   0.206   0.000  0.00  0.00    +0.000 A 
ATOM     10  C   UNL     1       8.523   1.031   0.000  0.00  0.00    +0.000 A 
ATOM     11  C   UNL     1       9.261   1.472   0.000  0.00  0.00    +0.000 A 
ATOM     12  C   UNL     1      10.008   0.189   0.000  0.00  0.00    +0.000 A 
ATOM     13  C   UNL     1      10.008   1.048   0.000  0.00  0.00    +0.000 A 
ENDROOT
BRANCH   5  18
ATOM     14  O   UNL     1       5.665   1.031   0.000  0.00  0.00    +0.000 OA
ATOM     15  O   UNL     1       7.094   2.681   0.000  0.00  0.00    +0.000 OA
ATOM     16  O   UNL     1       5.665   3.506   0.000  0.00  0.00    +0.000 OA
ATOM     17  O   UNL     1       4.236   2.681   0.000  0.00  0.00    +0.000 OA
ATOM     18  C   UNL     1       6.380   1.444   0.000  0.00  0.00    +0.000 C 
ATOM     19  C   UNL     1       6.380   2.269   0.000  0.00  0.00    +0.000 C 
ATOM     20  C   UNL     1       5.665   2.681   0.000  0.00  0.00    +0.000 C 
ATOM     21  C   UNL     1       4.951   2.269   0.000  0.00  0.00    +0.000 C 
ATOM     22  C   UNL     1       4.951   1.444   0.000  0.00  0.00    +0.000 C 
BRANCH  22  23
ATOM     23  C   UNL     1       4.236   1.031   0.000  0.00  0.00    +0.000 C 
BRANCH  23  24
ATOM     24  O   UNL     1       3.522   1.444   0.000  0.00  0.00    +0.000 OA
BRANCH  24  25
ATOM     25  S   UNL     1       2.808   1.031   0.000  0.00  0.00    +0.000 S 
ATOM     26  O   UNL     1       2.093   0.619   0.000  0.00  0.00    +0.000 OA
ATOM     27  O   UNL     1       2.395   1.746   0.000  0.00  0.00    +0.000 OA
ATOM     28  O   UNL     1       3.220   0.317   0.000  0.00  0.00    +0.000 OA
ENDBRANCH  24  25
ENDBRANCH  23  24
ENDBRANCH  22  23
ENDBRANCH   5  18
BRANCH   6  33
ATOM     29  O   UNL     1       8.523  -1.444   0.000  0.00  0.00    +0.000 OA
ATOM     30  O   UNL     1       6.380  -1.031   0.000  0.00  0.00    +0.000 OA
ATOM     31  O   UNL     1       6.380  -2.681   0.000  0.00  0.00    +0.000 OA
ATOM     32  O   UNL     1       7.809  -3.506   0.000  0.00  0.00    +0.000 OA
ATOM     33  C   UNL     1       7.809  -1.031   0.000  0.00  0.00    +0.000 C 
ATOM     34  C   UNL     1       7.094  -1.444   0.000  0.00  0.00    +0.000 C 
ATOM     35  C   UNL     1       7.094  -2.269   0.000  0.00  0.00    +0.000 C 
ATOM     36  C   UNL     1       7.809  -2.681   0.000  0.00  0.00    +0.000 C 
ATOM     37  C   UNL     1       8.523  -2.269   0.000  0.00  0.00    +0.000 C 
ENDBRANCH   6  33
BRANCH  12  41
ATOM     38  O   UNL     1      10.002  -1.461   0.000  0.00  0.00    +0.000 OA
ATOM     39  O   UNL     1      12.866   0.178   0.000  0.00  0.00    +0.000 OA
ATOM     40  O   UNL     1      12.860  -1.472   0.000  0.00  0.00    +0.000 OA
ATOM     41  C   UNL     1      10.721  -0.226   0.000  0.00  0.00    +0.000 A 
ATOM     42  C   UNL     1      10.718  -1.051   0.000  0.00  0.00    +0.000 A 
ATOM     43  C   UNL     1      11.437   0.184   0.000  0.00  0.00    +0.000 A 
ATOM     44  C   UNL     1      12.150  -0.232   0.000  0.00  0.00    +0.000 A 
ATOM     45  C   UNL     1      11.431  -1.466   0.000  0.00  0.00    +0.000 A 
ATOM     46  C   UNL     1      12.147  -1.057   0.000  0.00  0.00    +0.000 A 
ENDBRANCH  12  41
TORSDOF 6
