REMARK  Name = 131750831
REMARK  14 active torsions:
REMARK  status: ('A' for Active; 'I' for Inactive)
REMARK    1  A    between atoms: O_1  and  C_26
REMARK    2  A    between atoms: O_1  and  C_29
REMARK    3  A    between atoms: O_2  and  C_24
REMARK    4  A    between atoms: O_2  and  C_32
REMARK    5  A    between atoms: O_7  and  C_28
REMARK    6  A    between atoms: O_7  and  C_41
REMARK    7  A    between atoms: O_11  and  C_38
REMARK    8  A    between atoms: O_11  and  C_42
REMARK    9  A    between atoms: C_27  and  C_38
REMARK   10  A    between atoms: C_30  and  C_39
REMARK   11  A    between atoms: C_37  and  C_40
REMARK   12  A    between atoms: C_42  and  C_47
REMARK   13  A    between atoms: C_47  and  C_50
REMARK   14  A    between atoms: C_51  and  C_53
REMARK                            x       y       z     vdW  Elec       q    Type
REMARK                         _______ _______ _______ _____ _____    ______ ____
ROOT
ATOM      1  O   UNL     1       5.222  -0.148   0.000  0.00  0.00    +0.000 OA
ATOM      2  O   UNL     1       5.222  -2.623   0.000  0.00  0.00    +0.000 OA
ATOM      3  C   UNL     1       4.508  -1.386   0.000  0.00  0.00    +0.000 C 
ATOM      4  C   UNL     1       5.222  -1.798   0.000  0.00  0.00    +0.000 C 
ATOM      5  C   UNL     1       5.937  -1.386   0.000  0.00  0.00    +0.000 C 
ATOM      6  C   UNL     1       4.508  -0.561   0.000  0.00  0.00    +0.000 C 
ATOM      7  C   UNL     1       5.937  -0.561   0.000  0.00  0.00    +0.000 C 
ENDROOT
BRANCH   5   8
ATOM      8  O   UNL     1       6.651  -1.798   0.000  0.00  0.00    +0.000 OA
BRANCH   8  12
ATOM      9  O   UNL     1       7.452  -0.565   0.000  0.00  0.00    +0.000 OA
ATOM     10  O   UNL     1       9.386  -0.696   0.000  0.00  0.00    +0.000 OA
ATOM     11  O   UNL     1       8.291  -2.528   0.000  0.00  0.00    +0.000 OA
ATOM     12  C   UNL     1       7.366  -1.386   0.000  0.00  0.00    +0.000 C 
ATOM     13  C   UNL     1       8.671  -1.108   0.000  0.00  0.00    +0.000 C 
ATOM     14  C   UNL     1       8.120  -1.721   0.000  0.00  0.00    +0.000 C 
ATOM     15  C   UNL     1       8.259  -0.394   0.000  0.00  0.00    +0.000 C 
BRANCH  13  17
ATOM     16  O   UNL     1      10.069  -1.405   0.000  0.00  0.00    +0.000 OA
ATOM     17  C   UNL     1       9.284  -1.660   0.000  0.00  0.00    +0.000 C 
ENDBRANCH  13  17
ENDBRANCH   8  12
ENDBRANCH   5   8
BRANCH   3  18
ATOM     18  O   UNL     1       3.793  -1.798   0.000  0.00  0.00    +0.000 OA
BRANCH  18  23
ATOM     19  O   UNL     1       4.508  -3.036   0.000  0.00  0.00    +0.000 OA
ATOM     20  O   UNL     1       2.364  -2.623   0.000  0.00  0.00    +0.000 OA
ATOM     21  O   UNL     1       2.364  -4.273   0.000  0.00  0.00    +0.000 OA
ATOM     22  O   UNL     1       3.793  -5.098   0.000  0.00  0.00    +0.000 OA
ATOM     23  C   UNL     1       3.793  -2.623   0.000  0.00  0.00    +0.000 C 
ATOM     24  C   UNL     1       3.079  -3.036   0.000  0.00  0.00    +0.000 C 
ATOM     25  C   UNL     1       3.079  -3.861   0.000  0.00  0.00    +0.000 C 
ATOM     26  C   UNL     1       3.793  -4.273   0.000  0.00  0.00    +0.000 C 
ATOM     27  C   UNL     1       4.508  -3.861   0.000  0.00  0.00    +0.000 C 
BRANCH  27  29
ATOM     28  O   UNL     1       5.937  -3.861   0.000  0.00  0.00    +0.000 OA
ATOM     29  C   UNL     1       5.222  -4.273   0.000  0.00  0.00    +0.000 C 
ENDBRANCH  27  29
ENDBRANCH  18  23
ENDBRANCH   3  18
BRANCH   7  30
ATOM     30  O   UNL     1       6.651  -0.148   0.000  0.00  0.00    +0.000 OA
BRANCH  30  34
ATOM     31  O   UNL     1       8.100   2.378   0.000  0.00  0.00    +0.000 OA
ATOM     32  O   UNL     1       5.211   2.392   0.000  0.00  0.00    +0.000 OA
ATOM     33  O   UNL     1       5.961   3.624   0.000  0.00  0.00    +0.000 OA
ATOM     34  C   UNL     1       6.651   0.677   0.000  0.00  0.00    +0.000 A 
ATOM     35  C   UNL     1       7.394   1.109   0.000  0.00  0.00    +0.000 A 
ATOM     36  C   UNL     1       5.909   1.109   0.000  0.00  0.00    +0.000 A 
ATOM     37  C   UNL     1       7.384   1.969   0.000  0.00  0.00    +0.000 A 
ATOM     38  C   UNL     1       5.919   1.969   0.000  0.00  0.00    +0.000 A 
ATOM     39  C   UNL     1       6.671   2.384   0.000  0.00  0.00    +0.000 A 
ATOM     40  C   UNL     1       6.674   3.209   0.000  0.00  0.00    +0.000 A 
ATOM     41  C   UNL     1       8.103   3.203   0.000  0.00  0.00    +0.000 A 
ATOM     42  C   UNL     1       7.390   3.619   0.000  0.00  0.00    +0.000 A 
BRANCH  41  45
ATOM     43  O   UNL     1      10.961   3.192   0.000  0.00  0.00    +0.000 OA
ATOM     44  O   UNL     1      10.967   4.842   0.000  0.00  0.00    +0.000 OA
ATOM     45  C   UNL     1       8.819   3.613   0.000  0.00  0.00    +0.000 A 
ATOM     46  C   UNL     1       9.532   3.198   0.000  0.00  0.00    +0.000 A 
ATOM     47  C   UNL     1       8.822   4.438   0.000  0.00  0.00    +0.000 A 
ATOM     48  C   UNL     1      10.248   3.608   0.000  0.00  0.00    +0.000 A 
ATOM     49  C   UNL     1       9.538   4.848   0.000  0.00  0.00    +0.000 A 
ATOM     50  C   UNL     1      10.251   4.433   0.000  0.00  0.00    +0.000 A 
ENDBRANCH  41  45
ENDBRANCH  30  34
ENDBRANCH   7  30
BRANCH   6  51
ATOM     51  C   UNL     1       3.793  -0.148   0.000  0.00  0.00    +0.000 C 
BRANCH  51  52
ATOM     52  O   UNL     1       3.793   0.677   0.000  0.00  0.00    +0.000 OA
BRANCH  52  54
ATOM     53  O   UNL     1       2.364   0.677   0.000  0.00  0.00    +0.000 OA
ATOM     54  C   UNL     1       3.079   1.089   0.000  0.00  0.00    +0.000 C 
BRANCH  54  55
ATOM     55  C   UNL     1       3.079   1.914   0.000  0.00  0.00    +0.000 C 
BRANCH  55  58
ATOM     56  O   UNL     1       2.364   3.152   0.000  0.00  0.00    +0.000 OA
ATOM     57  O   UNL     1       1.650   1.914   0.000  0.00  0.00    +0.000 OA
ATOM     58  C   UNL     1       2.364   2.327   0.000  0.00  0.00    +0.000 C 
ENDBRANCH  55  58
ENDBRANCH  54  55
ENDBRANCH  52  54
ENDBRANCH  51  52
ENDBRANCH   6  51
TORSDOF 14
