REMARK  Name = 131838575
REMARK  16 active torsions:
REMARK  status: ('A' for Active; 'I' for Inactive)
REMARK    1  A    between atoms: O_1  and  C_23
REMARK    2  A    between atoms: O_1  and  C_25
REMARK    3  A    between atoms: O_7  and  C_28
REMARK    4  A    between atoms: O_7  and  C_33
REMARK    5  A    between atoms: O_9  and  C_31
REMARK    6  A    between atoms: O_9  and  C_39
REMARK    7  A    between atoms: O_12  and  C_38
REMARK    8  A    between atoms: O_12  and  C_47
REMARK    9  A    between atoms: C_22  and  C_31
REMARK   10  A    between atoms: C_30  and  C_32
REMARK   11  A    between atoms: C_37  and  C_42
REMARK   12  A    between atoms: C_39  and  C_43
REMARK   13  A    between atoms: C_46  and  C_52
REMARK   14  A    between atoms: C_48  and  C_49
REMARK   15  A    between atoms: C_55  and  C_56
REMARK   16  A    between atoms: C_56  and  C_57
REMARK                            x       y       z     vdW  Elec       q    Type
REMARK                         _______ _______ _______ _____ _____    ______ ____
ROOT
ATOM      1  O   UNL     1       6.466  -1.785   0.000  0.00  0.00    +0.000 OA
ATOM      2  O   UNL     1       8.400  -1.916   0.000  0.00  0.00    +0.000 OA
ATOM      3  O   UNL     1       7.305  -3.748   0.000  0.00  0.00    +0.000 OA
ATOM      4  C   UNL     1       7.686  -2.328   0.000  0.00  0.00    +0.000 C 
ATOM      5  C   UNL     1       7.133  -2.941   0.000  0.00  0.00    +0.000 C 
ATOM      6  C   UNL     1       6.380  -2.606   0.000  0.00  0.00    +0.000 C 
ATOM      7  C   UNL     1       7.273  -1.614   0.000  0.00  0.00    +0.000 C 
ENDROOT
BRANCH   4   8
ATOM      8  C   UNL     1       8.299  -2.880   0.000  0.00  0.00    +0.000 C 
BRANCH   8   9
ATOM      9  O   UNL     1       9.083  -2.625   0.000  0.00  0.00    +0.000 OA
BRANCH   9  11
ATOM     10  O   UNL     1       9.525  -3.984   0.000  0.00  0.00    +0.000 OA
ATOM     11  C   UNL     1       9.696  -3.177   0.000  0.00  0.00    +0.000 C 
BRANCH  11  12
ATOM     12  C   UNL     1      10.481  -2.922   0.000  0.00  0.00    +0.000 C 
ATOM     13  C   UNL     1      11.094  -3.474   0.000  0.00  0.00    +0.000 C 
BRANCH  13  15
ATOM     14  C   UNL     1      13.448  -2.710   0.000  0.00  0.00    +0.000 A 
ATOM     15  C   UNL     1      11.879  -3.220   0.000  0.00  0.00    +0.000 A 
ATOM     16  C   UNL     1      13.276  -3.517   0.000  0.00  0.00    +0.000 A 
ATOM     17  C   UNL     1      12.835  -2.158   0.000  0.00  0.00    +0.000 A 
ATOM     18  C   UNL     1      12.492  -3.772   0.000  0.00  0.00    +0.000 A 
ATOM     19  C   UNL     1      12.050  -2.413   0.000  0.00  0.00    +0.000 A 
BRANCH  14  20
ATOM     20  O   UNL     1      14.232  -2.455   0.000  0.00  0.00    +0.000 OA
BRANCH  20  29
ATOM     21  O   UNL     1      15.630  -2.752   0.000  0.00  0.00    +0.000 OA
ATOM     22  O   UNL     1      15.116  -5.173   0.000  0.00  0.00    +0.000 OA
ATOM     23  O   UNL     1      16.685  -4.663   0.000  0.00  0.00    +0.000 OA
ATOM     24  O   UNL     1      13.889  -4.069   0.000  0.00  0.00    +0.000 OA
ATOM     25  C   UNL     1      15.287  -4.366   0.000  0.00  0.00    +0.000 C 
ATOM     26  C   UNL     1      16.072  -4.111   0.000  0.00  0.00    +0.000 C 
ATOM     27  C   UNL     1      14.674  -3.814   0.000  0.00  0.00    +0.000 C 
ATOM     28  C   UNL     1      16.243  -3.304   0.000  0.00  0.00    +0.000 C 
ATOM     29  C   UNL     1      14.846  -3.007   0.000  0.00  0.00    +0.000 C 
BRANCH  28  32
ATOM     30  O   UNL     1      17.200  -2.242   0.000  0.00  0.00    +0.000 OA
ATOM     31  O   UNL     1      17.641  -3.601   0.000  0.00  0.00    +0.000 OA
ATOM     32  C   UNL     1      17.028  -3.049   0.000  0.00  0.00    +0.000 C 
ENDBRANCH  28  32
ENDBRANCH  20  29
ENDBRANCH  14  20
ENDBRANCH  13  15
ENDBRANCH  11  12
ENDBRANCH   9  11
ENDBRANCH   8   9
ENDBRANCH   4   8
BRANCH   6  33
ATOM     33  O   UNL     1       5.665  -3.018   0.000  0.00  0.00    +0.000 OA
BRANCH  33  37
ATOM     34  O   UNL     1       4.236  -1.368   0.000  0.00  0.00    +0.000 OA
ATOM     35  O   UNL     1       4.236  -3.843   0.000  0.00  0.00    +0.000 OA
ATOM     36  O   UNL     1       2.808  -3.018   0.000  0.00  0.00    +0.000 OA
ATOM     37  C   UNL     1       4.951  -2.606   0.000  0.00  0.00    +0.000 C 
ATOM     38  C   UNL     1       4.236  -3.018   0.000  0.00  0.00    +0.000 C 
ATOM     39  C   UNL     1       3.522  -2.606   0.000  0.00  0.00    +0.000 C 
ATOM     40  C   UNL     1       4.951  -1.781   0.000  0.00  0.00    +0.000 C 
ATOM     41  C   UNL     1       3.522  -1.781   0.000  0.00  0.00    +0.000 C 
BRANCH  41  43
ATOM     42  O   UNL     1       2.093  -1.781   0.000  0.00  0.00    +0.000 OA
ATOM     43  C   UNL     1       2.808  -1.368   0.000  0.00  0.00    +0.000 C 
ENDBRANCH  41  43
BRANCH  40  44
ATOM     44  O   UNL     1       5.665  -1.368   0.000  0.00  0.00    +0.000 OA
BRANCH  44  45
ATOM     45  C   UNL     1       5.665  -0.543   0.000  0.00  0.00    +0.000 A 
ATOM     46  C   UNL     1       6.380  -0.131   0.000  0.00  0.00    +0.000 A 
ATOM     47  C   UNL     1       4.951  -0.131   0.000  0.00  0.00    +0.000 A 
ATOM     48  C   UNL     1       6.380   0.694   0.000  0.00  0.00    +0.000 A 
ATOM     49  C   UNL     1       4.951   0.694   0.000  0.00  0.00    +0.000 A 
ATOM     50  C   UNL     1       5.665   1.107   0.000  0.00  0.00    +0.000 A 
BRANCH  50  51
ATOM     51  C   UNL     1       5.665   1.932   0.000  0.00  0.00    +0.000 C 
ATOM     52  C   UNL     1       6.380   2.344   0.000  0.00  0.00    +0.000 C 
BRANCH  52  54
ATOM     53  O   UNL     1       5.665   3.582   0.000  0.00  0.00    +0.000 OA
ATOM     54  C   UNL     1       6.380   3.169   0.000  0.00  0.00    +0.000 C 
BRANCH  54  57
ATOM     55  O   UNL     1       7.809   2.344   0.000  0.00  0.00    +0.000 OA
ATOM     56  O   UNL     1       9.238   4.819   0.000  0.00  0.00    +0.000 OA
ATOM     57  C   UNL     1       7.094   3.582   0.000  0.00  0.00    +0.000 A 
ATOM     58  C   UNL     1       7.809   3.169   0.000  0.00  0.00    +0.000 A 
ATOM     59  C   UNL     1       7.094   4.407   0.000  0.00  0.00    +0.000 A 
ATOM     60  C   UNL     1       8.523   3.582   0.000  0.00  0.00    +0.000 A 
ATOM     61  C   UNL     1       7.809   4.819   0.000  0.00  0.00    +0.000 A 
ATOM     62  C   UNL     1       8.523   4.407   0.000  0.00  0.00    +0.000 A 
ENDBRANCH  54  57
ENDBRANCH  52  54
ENDBRANCH  50  51
ENDBRANCH  44  45
ENDBRANCH  40  44
ENDBRANCH  33  37
ENDBRANCH   6  33
TORSDOF 16
