REMARK  Name = 74978230
REMARK  11 active torsions:
REMARK  status: ('A' for Active; 'I' for Inactive)
REMARK    1  A    between atoms: O_1  and  C_26
REMARK    2  A    between atoms: O_1  and  C_29
REMARK    3  A    between atoms: O_6  and  C_42
REMARK    4  A    between atoms: O_6  and  C_46
REMARK    5  A    between atoms: O_8  and  C_35
REMARK    6  A    between atoms: O_8  and  C_50
REMARK    7  A    between atoms: O_14  and  C_45
REMARK    8  A    between atoms: O_14  and  C_51
REMARK    9  A    between atoms: C_34  and  C_48
REMARK   10  A    between atoms: C_36  and  C_46
REMARK   11  A    between atoms: C_53  and  C_59
REMARK                            x       y       z     vdW  Elec       q    Type
REMARK                         _______ _______ _______ _____ _____    ______ ____
ROOT
ATOM      1  O   UNL     1       8.532   2.288   0.000  0.00  0.00    +0.000 OA
ATOM      2  O   UNL     1       6.384   1.059   0.000  0.00  0.00    +0.000 OA
ATOM      3  O   UNL     1       7.075  -0.207   0.000  0.00  0.00    +0.000 OA
ATOM      4  C   UNL     1       7.103   2.293   0.000  0.00  0.00    +0.000 A 
ATOM      5  C   UNL     1       9.281   0.183   0.000  0.00  0.00    +0.000 A 
ATOM      6  C   UNL     1       7.100   1.468   0.000  0.00  0.00    +0.000 A 
ATOM      7  C   UNL     1       7.819   2.703   0.000  0.00  0.00    +0.000 A 
ATOM      8  C   UNL     1       7.813   1.053   0.000  0.00  0.00    +0.000 A 
ATOM      9  C   UNL     1       8.529   1.463   0.000  0.00  0.00    +0.000 A 
ATOM     10  C   UNL     1       9.278   1.042   0.000  0.00  0.00    +0.000 A 
ATOM     11  C   UNL     1       8.536  -0.244   0.000  0.00  0.00    +0.000 A 
ATOM     12  C   UNL     1       7.796   0.194   0.000  0.00  0.00    +0.000 A 
ENDROOT
BRANCH   7  15
ATOM     13  O   UNL     1       9.258   5.173   0.000  0.00  0.00    +0.000 OA
ATOM     14  O   UNL     1       7.832   6.003   0.000  0.00  0.00    +0.000 OA
ATOM     15  C   UNL     1       7.822   3.528   0.000  0.00  0.00    +0.000 A 
ATOM     16  C   UNL     1       8.538   3.938   0.000  0.00  0.00    +0.000 A 
ATOM     17  C   UNL     1       7.109   3.943   0.000  0.00  0.00    +0.000 A 
ATOM     18  C   UNL     1       8.542   4.763   0.000  0.00  0.00    +0.000 A 
ATOM     19  C   UNL     1       7.113   4.769   0.000  0.00  0.00    +0.000 A 
ATOM     20  C   UNL     1       7.829   5.178   0.000  0.00  0.00    +0.000 A 
ENDBRANCH   7  15
BRANCH   4  21
ATOM     21  O   UNL     1       6.390   2.709   0.000  0.00  0.00    +0.000 OA
BRANCH  21  29
ATOM     22  O   UNL     1       5.671   1.474   0.000  0.00  0.00    +0.000 OA
ATOM     23  O   UNL     1       3.532   2.720   0.000  0.00  0.00    +0.000 OA
ATOM     24  O   UNL     1       4.965   3.539   0.000  0.00  0.00    +0.000 OA
ATOM     25  C   UNL     1       4.242   1.480   0.000  0.00  0.00    +0.000 C 
ATOM     26  C   UNL     1       4.245   2.304   0.000  0.00  0.00    +0.000 C 
ATOM     27  C   UNL     1       4.955   1.064   0.000  0.00  0.00    +0.000 C 
ATOM     28  C   UNL     1       4.961   2.714   0.000  0.00  0.00    +0.000 C 
ATOM     29  C   UNL     1       5.674   2.299   0.000  0.00  0.00    +0.000 C 
ATOM     30  C   UNL     1       4.952   0.239   0.000  0.00  0.00    +0.000 C 
BRANCH  25  31
ATOM     31  O   UNL     1       3.526   1.070   0.000  0.00  0.00    +0.000 OA
BRANCH  31  36
ATOM     32  O   UNL     1       4.236  -0.171   0.000  0.00  0.00    +0.000 OA
ATOM     33  O   UNL     1       2.094   0.250   0.000  0.00  0.00    +0.000 OA
ATOM     34  O   UNL     1       2.088  -1.400   0.000  0.00  0.00    +0.000 OA
ATOM     35  O   UNL     1       3.513  -2.230   0.000  0.00  0.00    +0.000 OA
ATOM     36  C   UNL     1       3.523   0.245   0.000  0.00  0.00    +0.000 C 
ATOM     37  C   UNL     1       2.807  -0.165   0.000  0.00  0.00    +0.000 C 
ATOM     38  C   UNL     1       2.804  -0.990   0.000  0.00  0.00    +0.000 C 
ATOM     39  C   UNL     1       3.517  -1.405   0.000  0.00  0.00    +0.000 C 
ATOM     40  C   UNL     1       4.232  -0.995   0.000  0.00  0.00    +0.000 C 
BRANCH  40  42
ATOM     41  O   UNL     1       5.661  -1.001   0.000  0.00  0.00    +0.000 OA
ATOM     42  C   UNL     1       4.945  -1.411   0.000  0.00  0.00    +0.000 C 
ENDBRANCH  40  42
ENDBRANCH  31  36
ENDBRANCH  25  31
ENDBRANCH  21  29
ENDBRANCH   4  21
BRANCH   5  43
ATOM     43  O   UNL     1       9.996  -0.230   0.000  0.00  0.00    +0.000 OA
BRANCH  43  52
ATOM     44  O   UNL     1       9.281  -1.467   0.000  0.00  0.00    +0.000 OA
ATOM     45  O   UNL     1       9.996  -3.530   0.000  0.00  0.00    +0.000 OA
ATOM     46  O   UNL     1      11.425  -2.705   0.000  0.00  0.00    +0.000 OA
ATOM     47  O   UNL     1      11.425  -1.055   0.000  0.00  0.00    +0.000 OA
ATOM     48  C   UNL     1       9.281  -2.292   0.000  0.00  0.00    +0.000 C 
ATOM     49  C   UNL     1       9.996  -2.705   0.000  0.00  0.00    +0.000 C 
ATOM     50  C   UNL     1      10.710  -2.292   0.000  0.00  0.00    +0.000 C 
ATOM     51  C   UNL     1      10.710  -1.467   0.000  0.00  0.00    +0.000 C 
ATOM     52  C   UNL     1       9.996  -1.055   0.000  0.00  0.00    +0.000 C 
BRANCH  48  53
ATOM     53  C   UNL     1       8.567  -2.705   0.000  0.00  0.00    +0.000 C 
BRANCH  53  54
ATOM     54  O   UNL     1       8.567  -3.530   0.000  0.00  0.00    +0.000 OA
BRANCH  54  60
ATOM     55  O   UNL     1       7.138  -3.530   0.000  0.00  0.00    +0.000 OA
ATOM     56  O   UNL     1       8.567  -5.180   0.000  0.00  0.00    +0.000 OA
ATOM     57  O   UNL     1       7.138  -6.005   0.000  0.00  0.00    +0.000 OA
ATOM     58  O   UNL     1       5.709  -5.180   0.000  0.00  0.00    +0.000 OA
ATOM     59  C   UNL     1       7.852  -4.767   0.000  0.00  0.00    +0.000 C 
ATOM     60  C   UNL     1       7.852  -3.942   0.000  0.00  0.00    +0.000 C 
ATOM     61  C   UNL     1       7.138  -5.180   0.000  0.00  0.00    +0.000 C 
ATOM     62  C   UNL     1       6.423  -4.767   0.000  0.00  0.00    +0.000 C 
ATOM     63  C   UNL     1       6.423  -3.942   0.000  0.00  0.00    +0.000 C 
ATOM     64  C   UNL     1       5.709  -3.530   0.000  0.00  0.00    +0.000 C 
ENDBRANCH  54  60
ENDBRANCH  53  54
ENDBRANCH  48  53
ENDBRANCH  43  52
ENDBRANCH   5  43
TORSDOF 11
