REMARK  Name = 73822546
REMARK  9 active torsions:
REMARK  status: ('A' for Active; 'I' for Inactive)
REMARK    1  A    between atoms: O_2  and  C_26
REMARK    2  A    between atoms: O_2  and  C_30
REMARK    3  A    between atoms: O_5  and  C_29
REMARK    4  A    between atoms: O_5  and  C_39
REMARK    5  A    between atoms: O_12  and  C_37
REMARK    6  A    between atoms: O_12  and  C_41
REMARK    7  A    between atoms: O_18  and  C_45
REMARK    8  A    between atoms: C_21  and  C_30
REMARK    9  A    between atoms: C_40  and  C_43
REMARK                            x       y       z     vdW  Elec       q    Type
REMARK                         _______ _______ _______ _____ _____    ______ ____
ROOT
ATOM      1  O   UNL     1       5.006   2.603   0.000  0.00  0.00    +0.000 OA
ATOM      2  O   UNL     1       5.006   0.128   0.000  0.00  0.00    +0.000 OA
ATOM      3  O   UNL     1       3.564   0.099   0.000  0.00  0.00    +0.000 OA
ATOM      4  O   UNL     1       2.094   2.623   0.000  0.00  0.00    +0.000 OA
ATOM      5  C   UNL     1       5.721   1.365   0.000  0.00  0.00    +0.000 A 
ATOM      6  C   UNL     1       5.721   2.190   0.000  0.00  0.00    +0.000 A 
ATOM      7  C   UNL     1       5.006   0.953   0.000  0.00  0.00    +0.000 A 
ATOM      8  C   UNL     1       4.292   1.365   0.000  0.00  0.00    +0.000 A 
ATOM      9  C   UNL     1       4.292   2.190   0.000  0.00  0.00    +0.000 A 
ATOM     10  C   UNL     1       3.554   0.924   0.000  0.00  0.00    +0.000 A 
ATOM     11  C   UNL     1       3.554   2.631   0.000  0.00  0.00    +0.000 A 
ATOM     12  C   UNL     1       2.807   1.348   0.000  0.00  0.00    +0.000 A 
ATOM     13  C   UNL     1       2.807   2.208   0.000  0.00  0.00    +0.000 A 
ENDROOT
BRANCH   6  15
ATOM     14  C   UNL     1       7.864   3.428   0.000  0.00  0.00    +0.000 A 
ATOM     15  C   UNL     1       6.435   2.603   0.000  0.00  0.00    +0.000 A 
ATOM     16  C   UNL     1       7.150   3.840   0.000  0.00  0.00    +0.000 A 
ATOM     17  C   UNL     1       7.864   2.603   0.000  0.00  0.00    +0.000 A 
ATOM     18  C   UNL     1       6.435   3.428   0.000  0.00  0.00    +0.000 A 
ATOM     19  C   UNL     1       7.150   2.190   0.000  0.00  0.00    +0.000 A 
BRANCH  16  20
ATOM     20  O   UNL     1       7.150   4.665   0.000  0.00  0.00    +0.000 OA
ATOM     21  C   UNL     1       6.435   5.078   0.000  0.00  0.00    +0.000 C 
ENDBRANCH  16  20
BRANCH  14  22
ATOM     22  O   UNL     1       8.579   3.840   0.000  0.00  0.00    +0.000 OA
BRANCH  22  31
ATOM     23  O   UNL     1       9.293   2.603   0.000  0.00  0.00    +0.000 OA
ATOM     24  O   UNL     1      11.437   3.840   0.000  0.00  0.00    +0.000 OA
ATOM     25  O   UNL     1      11.437   2.190   0.000  0.00  0.00    +0.000 OA
ATOM     26  O   UNL     1      10.008   4.665   0.000  0.00  0.00    +0.000 OA
ATOM     27  C   UNL     1      10.722   3.428   0.000  0.00  0.00    +0.000 C 
ATOM     28  C   UNL     1      10.722   2.603   0.000  0.00  0.00    +0.000 C 
ATOM     29  C   UNL     1      10.008   3.840   0.000  0.00  0.00    +0.000 C 
ATOM     30  C   UNL     1      10.008   2.190   0.000  0.00  0.00    +0.000 C 
ATOM     31  C   UNL     1       9.293   3.428   0.000  0.00  0.00    +0.000 C 
ATOM     32  C   UNL     1      10.008   1.365   0.000  0.00  0.00    +0.000 C 
ENDBRANCH  22  31
ENDBRANCH  14  22
ENDBRANCH   6  15
BRANCH   5  33
ATOM     33  O   UNL     1       6.435   0.953   0.000  0.00  0.00    +0.000 OA
BRANCH  33  42
ATOM     34  O   UNL     1       5.721  -0.285   0.000  0.00  0.00    +0.000 OA
ATOM     35  O   UNL     1       6.435  -2.347   0.000  0.00  0.00    +0.000 OA
ATOM     36  O   UNL     1       7.864  -1.522   0.000  0.00  0.00    +0.000 OA
ATOM     37  O   UNL     1       7.864   0.128   0.000  0.00  0.00    +0.000 OA
ATOM     38  C   UNL     1       5.721  -1.110   0.000  0.00  0.00    +0.000 C 
ATOM     39  C   UNL     1       6.435  -1.522   0.000  0.00  0.00    +0.000 C 
ATOM     40  C   UNL     1       7.150  -1.110   0.000  0.00  0.00    +0.000 C 
ATOM     41  C   UNL     1       7.150  -0.285   0.000  0.00  0.00    +0.000 C 
ATOM     42  C   UNL     1       6.435   0.128   0.000  0.00  0.00    +0.000 C 
BRANCH  38  43
ATOM     43  C   UNL     1       5.006  -1.522   0.000  0.00  0.00    +0.000 C 
BRANCH  43  44
ATOM     44  O   UNL     1       5.006  -2.347   0.000  0.00  0.00    +0.000 OA
BRANCH  44  50
ATOM     45  O   UNL     1       3.577  -2.347   0.000  0.00  0.00    +0.000 OA
ATOM     46  O   UNL     1       5.006  -3.997   0.000  0.00  0.00    +0.000 OA
ATOM     47  O   UNL     1       3.577  -4.822   0.000  0.00  0.00    +0.000 OA
ATOM     48  O   UNL     1       2.148  -3.997   0.000  0.00  0.00    +0.000 OA
ATOM     49  C   UNL     1       4.292  -3.585   0.000  0.00  0.00    +0.000 C 
ATOM     50  C   UNL     1       4.292  -2.760   0.000  0.00  0.00    +0.000 C 
ATOM     51  C   UNL     1       3.577  -3.997   0.000  0.00  0.00    +0.000 C 
ATOM     52  C   UNL     1       2.863  -3.585   0.000  0.00  0.00    +0.000 C 
ATOM     53  C   UNL     1       2.863  -2.760   0.000  0.00  0.00    +0.000 C 
ATOM     54  C   UNL     1       2.148  -2.347   0.000  0.00  0.00    +0.000 C 
ENDBRANCH  44  50
ENDBRANCH  43  44
ENDBRANCH  38  43
ENDBRANCH  33  42
ENDBRANCH   5  33
TORSDOF 9
