REMARK  Name = 14334894
REMARK  7 active torsions:
REMARK  status: ('A' for Active; 'I' for Inactive)
REMARK    1  A    between atoms: O_3  and  C_22
REMARK    2  A    between atoms: O_3  and  C_28
REMARK    3  A    between atoms: O_6  and  C_25
REMARK    4  A    between atoms: O_6  and  C_29
REMARK    5  A    between atoms: O_15  and  C_42
REMARK    6  A    between atoms: C_19  and  C_26
REMARK    7  A    between atoms: C_32  and  C_37
REMARK                            x       y       z     vdW  Elec       q    Type
REMARK                         _______ _______ _______ _____ _____    ______ ____
ROOT
ATOM      1  O   UNL     1       6.384  -0.238   0.000  0.00  0.00    +0.000 OA
ATOM      2  O   UNL     1       4.241  -1.476   0.000  0.00  0.00    +0.000 OA
ATOM      3  O   UNL     1       3.495  -0.241   0.000  0.00  0.00    +0.000 OA
ATOM      4  C   UNL     1       5.670  -1.476   0.000  0.00  0.00    +0.000 A 
ATOM      5  C   UNL     1       4.942   1.469   0.000  0.00  0.00    +0.000 A 
ATOM      6  C   UNL     1       4.955  -0.238   0.000  0.00  0.00    +0.000 A 
ATOM      7  C   UNL     1       4.955  -1.063   0.000  0.00  0.00    +0.000 A 
ATOM      8  C   UNL     1       6.384  -1.063   0.000  0.00  0.00    +0.000 A 
ATOM      9  C   UNL     1       5.670   0.174   0.000  0.00  0.00    +0.000 A 
ATOM     10  C   UNL     1       5.683   1.033   0.000  0.00  0.00    +0.000 A 
ATOM     11  C   UNL     1       4.198   1.039   0.000  0.00  0.00    +0.000 A 
ATOM     12  C   UNL     1       4.205   0.180   0.000  0.00  0.00    +0.000 A 
ENDROOT
BRANCH   8  13
ATOM     13  C   UNL     1       7.099  -1.476   0.000  0.00  0.00    +0.000 A 
ATOM     14  C   UNL     1       7.099  -2.301   0.000  0.00  0.00    +0.000 A 
ATOM     15  C   UNL     1       7.813  -1.063   0.000  0.00  0.00    +0.000 A 
ATOM     16  C   UNL     1       7.813  -2.713   0.000  0.00  0.00    +0.000 A 
ATOM     17  C   UNL     1       8.528  -1.476   0.000  0.00  0.00    +0.000 A 
ATOM     18  C   UNL     1       8.528  -2.301   0.000  0.00  0.00    +0.000 A 
BRANCH  18  19
ATOM     19  O   UNL     1       9.242  -2.713   0.000  0.00  0.00    +0.000 OA
ATOM     20  C   UNL     1       9.242  -3.538   0.000  0.00  0.00    +0.000 C 
ENDBRANCH  18  19
ENDBRANCH   8  13
BRANCH   4  21
ATOM     21  O   UNL     1       5.670  -2.301   0.000  0.00  0.00    +0.000 OA
BRANCH  21  30
ATOM     22  O   UNL     1       4.241  -2.301   0.000  0.00  0.00    +0.000 OA
ATOM     23  O   UNL     1       4.241  -4.776   0.000  0.00  0.00    +0.000 OA
ATOM     24  O   UNL     1       2.812  -3.951   0.000  0.00  0.00    +0.000 OA
ATOM     25  O   UNL     1       5.670  -3.951   0.000  0.00  0.00    +0.000 OA
ATOM     26  C   UNL     1       4.241  -3.951   0.000  0.00  0.00    +0.000 C 
ATOM     27  C   UNL     1       3.526  -3.538   0.000  0.00  0.00    +0.000 C 
ATOM     28  C   UNL     1       4.955  -3.538   0.000  0.00  0.00    +0.000 C 
ATOM     29  C   UNL     1       3.526  -2.713   0.000  0.00  0.00    +0.000 C 
ATOM     30  C   UNL     1       4.955  -2.713   0.000  0.00  0.00    +0.000 C 
BRANCH  29  32
ATOM     31  O   UNL     1       2.098  -2.713   0.000  0.00  0.00    +0.000 OA
ATOM     32  C   UNL     1       2.812  -2.301   0.000  0.00  0.00    +0.000 C 
ENDBRANCH  29  32
ENDBRANCH  21  30
ENDBRANCH   4  21
BRANCH   5  33
ATOM     33  O   UNL     1       4.946   2.294   0.000  0.00  0.00    +0.000 OA
BRANCH  33  42
ATOM     34  O   UNL     1       3.517   2.299   0.000  0.00  0.00    +0.000 OA
ATOM     35  O   UNL     1       3.526   4.774   0.000  0.00  0.00    +0.000 OA
ATOM     36  O   UNL     1       2.094   3.955   0.000  0.00  0.00    +0.000 OA
ATOM     37  O   UNL     1       4.952   3.944   0.000  0.00  0.00    +0.000 OA
ATOM     38  C   UNL     1       3.523   3.949   0.000  0.00  0.00    +0.000 C 
ATOM     39  C   UNL     1       2.807   3.539   0.000  0.00  0.00    +0.000 C 
ATOM     40  C   UNL     1       4.236   3.534   0.000  0.00  0.00    +0.000 C 
ATOM     41  C   UNL     1       2.804   2.715   0.000  0.00  0.00    +0.000 C 
ATOM     42  C   UNL     1       4.233   2.709   0.000  0.00  0.00    +0.000 C 
ATOM     43  C   UNL     1       2.088   2.305   0.000  0.00  0.00    +0.000 C 
ENDBRANCH  33  42
ENDBRANCH   5  33
TORSDOF 7
