REMARK  Name = 94525
REMARK  2 active torsions:
REMARK  status: ('A' for Active; 'I' for Inactive)
REMARK    1  A    between atoms: O_2  and  C_7
REMARK    2  A    between atoms: C_6  and  C_9
REMARK                            x       y       z     vdW  Elec       q    Type
REMARK                         _______ _______ _______ _____ _____    ______ ____
ROOT
ATOM      1  O   UNL     1       3.849  -0.843   0.000  0.00  0.00    +0.000 OA
ATOM      2  O   UNL     1       3.849   1.632   0.000  0.00  0.00    +0.000 OA
ATOM      3  C   UNL     1       3.135   0.394   0.000  0.00  0.00    +0.000 A 
ATOM      4  C   UNL     1       3.135  -0.431   0.000  0.00  0.00    +0.000 A 
ATOM      5  C   UNL     1       4.564  -0.431   0.000  0.00  0.00    +0.000 A 
ATOM      6  C   UNL     1       2.397   0.835   0.000  0.00  0.00    +0.000 A 
ATOM      7  C   UNL     1       3.849   0.807   0.000  0.00  0.00    +0.000 A 
ATOM      8  C   UNL     1       4.564   0.394   0.000  0.00  0.00    +0.000 A 
ATOM      9  C   UNL     1       2.397  -0.872   0.000  0.00  0.00    +0.000 A 
ATOM     10  C   UNL     1       1.650   0.411   0.000  0.00  0.00    +0.000 A 
ATOM     11  C   UNL     1       1.650  -0.448   0.000  0.00  0.00    +0.000 A 
ENDROOT
BRANCH   5  12
ATOM     12  C   UNL     1       5.278  -0.843   0.000  0.00  0.00    +0.000 A 
ATOM     13  C   UNL     1       5.993  -0.431   0.000  0.00  0.00    +0.000 A 
ATOM     14  C   UNL     1       5.278  -1.668   0.000  0.00  0.00    +0.000 A 
ATOM     15  C   UNL     1       6.707  -0.843   0.000  0.00  0.00    +0.000 A 
ATOM     16  C   UNL     1       5.993  -2.081   0.000  0.00  0.00    +0.000 A 
ATOM     17  C   UNL     1       6.707  -1.668   0.000  0.00  0.00    +0.000 A 
ENDBRANCH   5  12
BRANCH   6  18
ATOM     18  O   UNL     1       2.407   1.660   0.000  0.00  0.00    +0.000 OA
ATOM     19  C   UNL     1       1.697   2.081   0.000  0.00  0.00    +0.000 C 
ENDBRANCH   6  18
TORSDOF 2
