REMARK  Name = 23846551
REMARK  12 active torsions:
REMARK  status: ('A' for Active; 'I' for Inactive)
REMARK    1  A    between atoms: O_2  and  C_18
REMARK    2  A    between atoms: O_2  and  C_35
REMARK    3  A    between atoms: O_4  and  C_19
REMARK    4  A    between atoms: O_4  and  C_36
REMARK    5  A    between atoms: O_5  and  C_21
REMARK    6  A    between atoms: O_5  and  C_37
REMARK    7  A    between atoms: O_6  and  C_28
REMARK    8  A    between atoms: O_6  and  C_39
REMARK    9  A    between atoms: O_10  and  C_29
REMARK   10  A    between atoms: C_20  and  C_26
REMARK   11  A    between atoms: C_25  and  C_30
REMARK   12  A    between atoms: C_40  and  C_42
REMARK                            x       y       z     vdW  Elec       q    Type
REMARK                         _______ _______ _______ _____ _____    ______ ____
ROOT
ATOM      1  O   UNL     1       6.408  -0.293   0.000  0.00  0.00    +0.000 OA
ATOM      2  O   UNL     1       7.833   2.211   0.000  0.00  0.00    +0.000 OA
ATOM      3  O   UNL     1       4.225   0.990   0.000  0.00  0.00    +0.000 OA
ATOM      4  C   UNL     1       6.404   2.216   0.000  0.00  0.00    +0.000 A 
ATOM      5  C   UNL     1       5.688   1.806   0.000  0.00  0.00    +0.000 A 
ATOM      6  C   UNL     1       7.117   1.801   0.000  0.00  0.00    +0.000 A 
ATOM      7  C   UNL     1       5.685   0.981   0.000  0.00  0.00    +0.000 A 
ATOM      8  C   UNL     1       6.398   0.566   0.000  0.00  0.00    +0.000 A 
ATOM      9  C   UNL     1       7.114   0.976   0.000  0.00  0.00    +0.000 A 
ATOM     10  C   UNL     1       4.933   0.566   0.000  0.00  0.00    +0.000 A 
ATOM     11  C   UNL     1       5.665  -0.726   0.000  0.00  0.00    +0.000 A 
ATOM     12  C   UNL     1       4.923  -0.293   0.000  0.00  0.00    +0.000 A 
ENDROOT
BRANCH   4  16
ATOM     13  O   UNL     1       5.695   3.456   0.000  0.00  0.00    +0.000 OA
ATOM     14  C   UNL     1       7.123   3.451   0.000  0.00  0.00    +0.000 C 
ATOM     15  C   UNL     1       7.127   4.276   0.000  0.00  0.00    +0.000 C 
ATOM     16  C   UNL     1       6.407   3.041   0.000  0.00  0.00    +0.000 C 
ATOM     17  C   UNL     1       6.414   4.691   0.000  0.00  0.00    +0.000 C 
ATOM     18  C   UNL     1       5.698   4.281   0.000  0.00  0.00    +0.000 C 
BRANCH  14  19
ATOM     19  O   UNL     1       7.836   3.036   0.000  0.00  0.00    +0.000 OA
BRANCH  19  21
ATOM     20  O   UNL     1       8.556   4.270   0.000  0.00  0.00    +0.000 OA
ATOM     21  C   UNL     1       8.552   3.445   0.000  0.00  0.00    +0.000 C 
ATOM     22  C   UNL     1       9.265   3.030   0.000  0.00  0.00    +0.000 C 
ENDBRANCH  19  21
ENDBRANCH  14  19
BRANCH  15  23
ATOM     23  O   UNL     1       7.843   4.686   0.000  0.00  0.00    +0.000 OA
BRANCH  23  25
ATOM     24  O   UNL     1       7.133   5.926   0.000  0.00  0.00    +0.000 OA
ATOM     25  C   UNL     1       7.846   5.511   0.000  0.00  0.00    +0.000 C 
ATOM     26  C   UNL     1       8.562   5.920   0.000  0.00  0.00    +0.000 C 
ENDBRANCH  23  25
ENDBRANCH  15  23
BRANCH  17  27
ATOM     27  O   UNL     1       6.417   5.516   0.000  0.00  0.00    +0.000 OA
BRANCH  27  29
ATOM     28  O   UNL     1       4.988   5.522   0.000  0.00  0.00    +0.000 OA
ATOM     29  C   UNL     1       5.704   5.931   0.000  0.00  0.00    +0.000 C 
ATOM     30  C   UNL     1       5.707   6.756   0.000  0.00  0.00    +0.000 C 
ENDBRANCH  27  29
ENDBRANCH  17  27
ENDBRANCH   4  16
BRANCH  11  32
ATOM     31  C   UNL     1       5.665  -3.201   0.000  0.00  0.00    +0.000 A 
ATOM     32  C   UNL     1       5.665  -1.551   0.000  0.00  0.00    +0.000 A 
ATOM     33  C   UNL     1       6.380  -2.788   0.000  0.00  0.00    +0.000 A 
ATOM     34  C   UNL     1       4.951  -2.788   0.000  0.00  0.00    +0.000 A 
ATOM     35  C   UNL     1       6.380  -1.963   0.000  0.00  0.00    +0.000 A 
ATOM     36  C   UNL     1       4.951  -1.963   0.000  0.00  0.00    +0.000 A 
BRANCH  31  37
ATOM     37  O   UNL     1       5.665  -4.026   0.000  0.00  0.00    +0.000 OA
BRANCH  37  46
ATOM     38  O   UNL     1       4.236  -4.026   0.000  0.00  0.00    +0.000 OA
ATOM     39  O   UNL     1       2.808  -5.676   0.000  0.00  0.00    +0.000 OA
ATOM     40  O   UNL     1       4.236  -6.501   0.000  0.00  0.00    +0.000 OA
ATOM     41  O   UNL     1       5.665  -5.676   0.000  0.00  0.00    +0.000 OA
ATOM     42  C   UNL     1       3.522  -5.263   0.000  0.00  0.00    +0.000 C 
ATOM     43  C   UNL     1       4.236  -5.676   0.000  0.00  0.00    +0.000 C 
ATOM     44  C   UNL     1       3.522  -4.438   0.000  0.00  0.00    +0.000 C 
ATOM     45  C   UNL     1       4.951  -5.263   0.000  0.00  0.00    +0.000 C 
ATOM     46  C   UNL     1       4.951  -4.438   0.000  0.00  0.00    +0.000 C 
BRANCH  44  48
ATOM     47  O   UNL     1       2.093  -4.438   0.000  0.00  0.00    +0.000 OA
ATOM     48  C   UNL     1       2.808  -4.026   0.000  0.00  0.00    +0.000 C 
ENDBRANCH  44  48
ENDBRANCH  37  46
ENDBRANCH  31  37
ENDBRANCH  11  32
BRANCH   5  49
ATOM     49  O   UNL     1       4.975   2.222   0.000  0.00  0.00    +0.000 OA
ATOM     50  C   UNL     1       4.259   1.812   0.000  0.00  0.00    +0.000 C 
ENDBRANCH   5  49
TORSDOF 12
