REMARK  Name = 45783227
REMARK  10 active torsions:
REMARK  status: ('A' for Active; 'I' for Inactive)
REMARK    1  A    between atoms: O_4  and  C_16
REMARK    2  A    between atoms: O_4  and  C_18
REMARK    3  A    between atoms: O_6  and  C_17
REMARK    4  A    between atoms: O_6  and  C_21
REMARK    5  A    between atoms: C_14  and  C_17
REMARK    6  A    between atoms: C_21  and  C_25
REMARK    7  A    between atoms: C_24  and  C_26
REMARK    8  A    between atoms: C_27  and  C_28
REMARK    9  A    between atoms: C_29  and  C_30
REMARK   10  A    between atoms: C_30  and  C_33
REMARK                            x       y       z     vdW  Elec       q    Type
REMARK                         _______ _______ _______ _____ _____    ______ ____
ROOT
ATOM      1  O   UNL     1       5.222  -1.984   0.000  0.00  0.00    +0.000 OA
ATOM      2  O   UNL     1       3.793  -3.634   0.000  0.00  0.00    +0.000 OA
ATOM      3  O   UNL     1       5.222  -4.459   0.000  0.00  0.00    +0.000 OA
ATOM      4  O   UNL     1       6.651  -3.634   0.000  0.00  0.00    +0.000 OA
ATOM      5  C   UNL     1       4.508  -3.222   0.000  0.00  0.00    +0.000 C 
ATOM      6  C   UNL     1       5.222  -3.634   0.000  0.00  0.00    +0.000 C 
ATOM      7  C   UNL     1       4.508  -2.397   0.000  0.00  0.00    +0.000 C 
ATOM      8  C   UNL     1       5.937  -3.222   0.000  0.00  0.00    +0.000 C 
ATOM      9  C   UNL     1       5.937  -2.397   0.000  0.00  0.00    +0.000 C 
ENDROOT
BRANCH   9  10
ATOM     10  O   UNL     1       6.651  -1.984   0.000  0.00  0.00    +0.000 OA
BRANCH  10  11
ATOM     11  C   UNL     1       6.651  -1.159   0.000  0.00  0.00    +0.000 A 
ATOM     12  C   UNL     1       7.366  -0.747   0.000  0.00  0.00    +0.000 A 
ATOM     13  C   UNL     1       5.937  -0.747   0.000  0.00  0.00    +0.000 A 
ATOM     14  C   UNL     1       7.366   0.078   0.000  0.00  0.00    +0.000 A 
ATOM     15  C   UNL     1       5.937   0.078   0.000  0.00  0.00    +0.000 A 
ATOM     16  C   UNL     1       6.651   0.491   0.000  0.00  0.00    +0.000 A 
BRANCH  16  17
ATOM     17  C   UNL     1       6.651   1.316   0.000  0.00  0.00    +0.000 C 
ATOM     18  C   UNL     1       7.366   1.728   0.000  0.00  0.00    +0.000 C 
BRANCH  18  20
ATOM     19  O   UNL     1       6.651   2.966   0.000  0.00  0.00    +0.000 OA
ATOM     20  C   UNL     1       7.366   2.553   0.000  0.00  0.00    +0.000 C 
BRANCH  20  23
ATOM     21  O   UNL     1       8.795   1.728   0.000  0.00  0.00    +0.000 OA
ATOM     22  O   UNL     1      10.224   4.203   0.000  0.00  0.00    +0.000 OA
ATOM     23  C   UNL     1       8.080   2.966   0.000  0.00  0.00    +0.000 A 
ATOM     24  C   UNL     1       8.795   2.553   0.000  0.00  0.00    +0.000 A 
ATOM     25  C   UNL     1       8.080   3.791   0.000  0.00  0.00    +0.000 A 
ATOM     26  C   UNL     1       9.509   2.966   0.000  0.00  0.00    +0.000 A 
ATOM     27  C   UNL     1       8.795   4.203   0.000  0.00  0.00    +0.000 A 
ATOM     28  C   UNL     1       9.509   3.791   0.000  0.00  0.00    +0.000 A 
ENDBRANCH  20  23
ENDBRANCH  18  20
ENDBRANCH  16  17
ENDBRANCH  10  11
ENDBRANCH   9  10
BRANCH   7  29
ATOM     29  C   UNL     1       3.793  -1.984   0.000  0.00  0.00    +0.000 C 
BRANCH  29  30
ATOM     30  O   UNL     1       3.793  -1.159   0.000  0.00  0.00    +0.000 OA
BRANCH  30  32
ATOM     31  O   UNL     1       2.365  -1.159   0.000  0.00  0.00    +0.000 OA
ATOM     32  C   UNL     1       3.079  -0.747   0.000  0.00  0.00    +0.000 C 
BRANCH  32  33
ATOM     33  C   UNL     1       3.079   0.078   0.000  0.00  0.00    +0.000 C 
ATOM     34  C   UNL     1       2.365   0.491   0.000  0.00  0.00    +0.000 C 
BRANCH  34  36
ATOM     35  O   UNL     1       2.365   3.791   0.000  0.00  0.00    +0.000 OA
ATOM     36  C   UNL     1       2.365   1.316   0.000  0.00  0.00    +0.000 A 
ATOM     37  C   UNL     1       1.650   1.728   0.000  0.00  0.00    +0.000 A 
ATOM     38  C   UNL     1       3.079   1.728   0.000  0.00  0.00    +0.000 A 
ATOM     39  C   UNL     1       1.650   2.553   0.000  0.00  0.00    +0.000 A 
ATOM     40  C   UNL     1       3.079   2.553   0.000  0.00  0.00    +0.000 A 
ATOM     41  C   UNL     1       2.365   2.966   0.000  0.00  0.00    +0.000 A 
ENDBRANCH  34  36
ENDBRANCH  32  33
ENDBRANCH  30  32
ENDBRANCH  29  30
ENDBRANCH   7  29
TORSDOF 10
