REMARK  Name = 21159153
REMARK  9 active torsions:
REMARK  status: ('A' for Active; 'I' for Inactive)
REMARK    1  A    between atoms: O_1  and  C_12
REMARK    2  A    between atoms: O_1  and  C_16
REMARK    3  A    between atoms: O_5  and  C_19
REMARK    4  A    between atoms: O_6  and  C_20
REMARK    5  A    between atoms: O_7  and  C_25
REMARK    6  A    between atoms: C_12  and  C_13
REMARK    7  A    between atoms: C_12  and  C_15
REMARK    8  A    between atoms: C_13  and  C_14
REMARK    9  A    between atoms: C_21  and  C_24
REMARK                            x       y       z     vdW  Elec       q    Type
REMARK                         _______ _______ _______ _____ _____    ______ ____
ROOT
ATOM      1  C   UNL     1       7.864  -0.970   0.000  0.00  0.00    +0.000 A 
ATOM      2  C   UNL     1       7.864  -0.145   0.000  0.00  0.00    +0.000 A 
ATOM      3  C   UNL     1       7.150  -1.382   0.000  0.00  0.00    +0.000 A 
ATOM      4  C   UNL     1       6.435  -0.145   0.000  0.00  0.00    +0.000 A 
ATOM      5  C   UNL     1       7.150   0.268   0.000  0.00  0.00    +0.000 A 
ATOM      6  C   UNL     1       6.435  -0.970   0.000  0.00  0.00    +0.000 A 
ENDROOT
BRANCH   4  11
ATOM      7  O   UNL     1       5.006  -0.145   0.000  0.00  0.00    +0.000 OA
ATOM      8  O   UNL     1       5.006   2.330   0.000  0.00  0.00    +0.000 OA
ATOM      9  O   UNL     1       3.564   2.359   0.000  0.00  0.00    +0.000 OA
ATOM     10  O   UNL     1       2.094  -0.165   0.000  0.00  0.00    +0.000 OA
ATOM     11  C   UNL     1       5.721   0.268   0.000  0.00  0.00    +0.000 A 
ATOM     12  C   UNL     1       4.292   1.093   0.000  0.00  0.00    +0.000 A 
ATOM     13  C   UNL     1       4.292   0.268   0.000  0.00  0.00    +0.000 A 
ATOM     14  C   UNL     1       5.721   1.093   0.000  0.00  0.00    +0.000 A 
ATOM     15  C   UNL     1       5.006   1.505   0.000  0.00  0.00    +0.000 A 
ATOM     16  C   UNL     1       3.554   1.534   0.000  0.00  0.00    +0.000 A 
ATOM     17  C   UNL     1       3.554  -0.173   0.000  0.00  0.00    +0.000 A 
ATOM     18  C   UNL     1       2.807   0.251   0.000  0.00  0.00    +0.000 A 
ATOM     19  C   UNL     1       2.807   1.110   0.000  0.00  0.00    +0.000 A 
ENDBRANCH   4  11
BRANCH   2  20
ATOM     20  O   UNL     1       8.579   0.268   0.000  0.00  0.00    +0.000 OA
ATOM     21  C   UNL     1       8.579   1.093   0.000  0.00  0.00    +0.000 C 
ENDBRANCH   2  20
BRANCH   3  22
ATOM     22  O   UNL     1       7.150  -2.207   0.000  0.00  0.00    +0.000 OA
ATOM     23  C   UNL     1       6.435  -2.620   0.000  0.00  0.00    +0.000 C 
ENDBRANCH   3  22
BRANCH   1  24
ATOM     24  O   UNL     1       8.579  -1.382   0.000  0.00  0.00    +0.000 OA
BRANCH  24  25
ATOM     25  C   UNL     1       9.293  -0.970   0.000  0.00  0.00    +0.000 C 
BRANCH  25  27
ATOM     26  O   UNL     1      10.008  -2.207   0.000  0.00  0.00    +0.000 OA
ATOM     27  C   UNL     1      10.008  -1.382   0.000  0.00  0.00    +0.000 C 
BRANCH  27  29
ATOM     28  O   UNL     1      12.866   0.268   0.000  0.00  0.00    +0.000 OA
ATOM     29  C   UNL     1      10.722  -0.970   0.000  0.00  0.00    +0.000 A 
ATOM     30  C   UNL     1      11.437  -1.382   0.000  0.00  0.00    +0.000 A 
ATOM     31  C   UNL     1      10.722  -0.145   0.000  0.00  0.00    +0.000 A 
ATOM     32  C   UNL     1      12.151  -0.970   0.000  0.00  0.00    +0.000 A 
ATOM     33  C   UNL     1      11.437   0.268   0.000  0.00  0.00    +0.000 A 
ATOM     34  C   UNL     1      12.151  -0.145   0.000  0.00  0.00    +0.000 A 
BRANCH  32  35
ATOM     35  O   UNL     1      12.866  -1.382   0.000  0.00  0.00    +0.000 OA
ATOM     36  C   UNL     1      12.866  -2.207   0.000  0.00  0.00    +0.000 C 
ENDBRANCH  32  35
ENDBRANCH  27  29
ENDBRANCH  25  27
BRANCH  25  38
ATOM     37  O   UNL     1      10.008   0.268   0.000  0.00  0.00    +0.000 OA
ATOM     38  C   UNL     1       9.293  -0.145   0.000  0.00  0.00    +0.000 C 
ENDBRANCH  25  38
ENDBRANCH  24  25
ENDBRANCH   1  24
TORSDOF 9
