REMARK  Name = 25203835
REMARK  4 active torsions:
REMARK  status: ('A' for Active; 'I' for Inactive)
REMARK    1  A    between atoms: O_2  and  C_16
REMARK    2  A    between atoms: O_2  and  C_18
REMARK    3  A    between atoms: C_15  and  C_17
REMARK    4  A    between atoms: C_25  and  C_27
REMARK                            x       y       z     vdW  Elec       q    Type
REMARK                         _______ _______ _______ _____ _____    ______ ____
ROOT
ATOM      1  O   UNL     1       7.114   1.394   0.000  0.00  0.00    +0.000 OA
ATOM      2  O   UNL     1       4.225   1.408   0.000  0.00  0.00    +0.000 OA
ATOM      3  O   UNL     1       6.407   3.459   0.000  0.00  0.00    +0.000 OA
ATOM      4  O   UNL     1       4.975   2.640   0.000  0.00  0.00    +0.000 OA
ATOM      5  C   UNL     1       5.665  -0.308   0.000  0.00  0.00    +0.000 A 
ATOM      6  C   UNL     1       6.408   0.125   0.000  0.00  0.00    +0.000 A 
ATOM      7  C   UNL     1       4.923   0.125   0.000  0.00  0.00    +0.000 A 
ATOM      8  C   UNL     1       6.398   0.984   0.000  0.00  0.00    +0.000 A 
ATOM      9  C   UNL     1       5.685   1.399   0.000  0.00  0.00    +0.000 A 
ATOM     10  C   UNL     1       4.933   0.984   0.000  0.00  0.00    +0.000 A 
ATOM     11  C   UNL     1       5.688   2.224   0.000  0.00  0.00    +0.000 A 
ATOM     12  C   UNL     1       7.117   2.219   0.000  0.00  0.00    +0.000 A 
ATOM     13  C   UNL     1       6.404   2.634   0.000  0.00  0.00    +0.000 A 
ENDROOT
BRANCH  12  15
ATOM     14  O   UNL     1       9.981   3.858   0.000  0.00  0.00    +0.000 OA
ATOM     15  C   UNL     1       7.833   2.629   0.000  0.00  0.00    +0.000 A 
ATOM     16  C   UNL     1       7.836   3.454   0.000  0.00  0.00    +0.000 A 
ATOM     17  C   UNL     1       8.546   2.213   0.000  0.00  0.00    +0.000 A 
ATOM     18  C   UNL     1       8.552   3.863   0.000  0.00  0.00    +0.000 A 
ATOM     19  C   UNL     1       9.262   2.623   0.000  0.00  0.00    +0.000 A 
ATOM     20  C   UNL     1       9.265   3.448   0.000  0.00  0.00    +0.000 A 
ENDBRANCH  12  15
BRANCH   5  21
ATOM     21  O   UNL     1       5.665  -1.133   0.000  0.00  0.00    +0.000 OA
BRANCH  21  30
ATOM     22  O   UNL     1       4.236  -1.133   0.000  0.00  0.00    +0.000 OA
ATOM     23  O   UNL     1       4.236  -3.608   0.000  0.00  0.00    +0.000 OA
ATOM     24  O   UNL     1       2.808  -2.783   0.000  0.00  0.00    +0.000 OA
ATOM     25  O   UNL     1       5.665  -2.783   0.000  0.00  0.00    +0.000 OA
ATOM     26  C   UNL     1       4.236  -2.783   0.000  0.00  0.00    +0.000 C 
ATOM     27  C   UNL     1       3.522  -2.370   0.000  0.00  0.00    +0.000 C 
ATOM     28  C   UNL     1       4.951  -2.370   0.000  0.00  0.00    +0.000 C 
ATOM     29  C   UNL     1       3.522  -1.545   0.000  0.00  0.00    +0.000 C 
ATOM     30  C   UNL     1       4.951  -1.545   0.000  0.00  0.00    +0.000 C 
BRANCH  29  32
ATOM     31  O   UNL     1       2.093  -1.545   0.000  0.00  0.00    +0.000 OA
ATOM     32  C   UNL     1       2.808  -1.133   0.000  0.00  0.00    +0.000 C 
ENDBRANCH  29  32
ENDBRANCH  21  30
ENDBRANCH   5  21
TORSDOF 4
