REMARK  Name = 44715855
REMARK  6 active torsions:
REMARK  status: ('A' for Active; 'I' for Inactive)
REMARK    1  A    between atoms: O_2  and  C_16
REMARK    2  A    between atoms: O_2  and  C_18
REMARK    3  A    between atoms: C_15  and  C_17
REMARK    4  A    between atoms: C_19  and  C_27
REMARK    5  A    between atoms: C_20  and  C_28
REMARK    6  A    between atoms: C_27  and  C_29
REMARK                            x       y       z     vdW  Elec       q    Type
REMARK                         _______ _______ _______ _____ _____    ______ ____
ROOT
ATOM      1  O   UNL     1       4.963   1.354   0.000  0.00  0.00    +0.000 OA
ATOM      2  O   UNL     1       5.704   3.468   0.000  0.00  0.00    +0.000 OA
ATOM      3  O   UNL     1       7.857   1.348   0.000  0.00  0.00    +0.000 OA
ATOM      4  O   UNL     1       7.160   2.612   0.000  0.00  0.00    +0.000 OA
ATOM      5  C   UNL     1       6.428  -0.302   0.000  0.00  0.00    +0.000 A 
ATOM      6  C   UNL     1       7.143   0.111   0.000  0.00  0.00    +0.000 A 
ATOM      7  C   UNL     1       4.956   2.213   0.000  0.00  0.00    +0.000 C 
ATOM      8  C   UNL     1       6.428   1.348   0.000  0.00  0.00    +0.000 A 
ATOM      9  C   UNL     1       5.714   0.936   0.000  0.00  0.00    +0.000 A 
ATOM     10  C   UNL     1       5.700   2.643   0.000  0.00  0.00    +0.000 C 
ATOM     11  C   UNL     1       5.714   0.111   0.000  0.00  0.00    +0.000 A 
ATOM     12  C   UNL     1       7.143   0.936   0.000  0.00  0.00    +0.000 A 
ATOM     13  C   UNL     1       6.441   2.207   0.000  0.00  0.00    +0.000 C 
ENDROOT
BRANCH   7  15
ATOM     14  O   UNL     1       2.092   3.852   0.000  0.00  0.00    +0.000 OA
ATOM     15  C   UNL     1       4.240   2.623   0.000  0.00  0.00    +0.000 A 
ATOM     16  C   UNL     1       4.237   3.448   0.000  0.00  0.00    +0.000 A 
ATOM     17  C   UNL     1       3.527   2.208   0.000  0.00  0.00    +0.000 A 
ATOM     18  C   UNL     1       3.521   3.858   0.000  0.00  0.00    +0.000 A 
ATOM     19  C   UNL     1       2.811   2.617   0.000  0.00  0.00    +0.000 A 
ATOM     20  C   UNL     1       2.808   3.442   0.000  0.00  0.00    +0.000 A 
ENDBRANCH   7  15
BRANCH   5  21
ATOM     21  O   UNL     1       6.428  -1.127   0.000  0.00  0.00    +0.000 OA
BRANCH  21  30
ATOM     22  O   UNL     1       4.999  -1.127   0.000  0.00  0.00    +0.000 OA
ATOM     23  O   UNL     1       4.999  -3.602   0.000  0.00  0.00    +0.000 OA
ATOM     24  O   UNL     1       3.570  -2.777   0.000  0.00  0.00    +0.000 OA
ATOM     25  O   UNL     1       6.428  -2.777   0.000  0.00  0.00    +0.000 OA
ATOM     26  C   UNL     1       4.999  -2.777   0.000  0.00  0.00    +0.000 C 
ATOM     27  C   UNL     1       4.285  -2.364   0.000  0.00  0.00    +0.000 C 
ATOM     28  C   UNL     1       5.714  -2.364   0.000  0.00  0.00    +0.000 C 
ATOM     29  C   UNL     1       4.285  -1.539   0.000  0.00  0.00    +0.000 C 
ATOM     30  C   UNL     1       5.714  -1.539   0.000  0.00  0.00    +0.000 C 
BRANCH  29  32
ATOM     31  O   UNL     1       2.856  -1.539   0.000  0.00  0.00    +0.000 OA
ATOM     32  C   UNL     1       3.570  -1.127   0.000  0.00  0.00    +0.000 C 
ENDBRANCH  29  32
ENDBRANCH  21  30
ENDBRANCH   5  21
BRANCH   6  33
ATOM     33  C   UNL     1       7.857  -0.302   0.000  0.00  0.00    +0.000 C 
BRANCH  33  34
ATOM     34  C   UNL     1       8.572   0.111   0.000  0.00  0.00    +0.000 C 
ATOM     35  C   UNL     1       9.286  -0.302   0.000  0.00  0.00    +0.000 C 
ATOM     36  C   UNL     1      10.000   0.111   0.000  0.00  0.00    +0.000 C 
ATOM     37  C   UNL     1       9.286  -1.127   0.000  0.00  0.00    +0.000 C 
ENDBRANCH  33  34
ENDBRANCH   6  33
TORSDOF 6
