REMARK  Name = 74977517
REMARK  7 active torsions:
REMARK  status: ('A' for Active; 'I' for Inactive)
REMARK    1  A    between atoms: O_1  and  C_18
REMARK    2  A    between atoms: O_1  and  C_20
REMARK    3  A    between atoms: O_5  and  C_23
REMARK    4  A    between atoms: O_5  and  C_30
REMARK    5  A    between atoms: C_26  and  C_28
REMARK    6  A    between atoms: C_27  and  C_29
REMARK    7  A    between atoms: C_37  and  C_39
REMARK                            x       y       z     vdW  Elec       q    Type
REMARK                         _______ _______ _______ _____ _____    ______ ____
ROOT
ATOM      1  O   UNL     1       4.236  -0.148   0.000  0.00  0.00    +0.000 OA
ATOM      2  O   UNL     1       4.236  -2.623   0.000  0.00  0.00    +0.000 OA
ATOM      3  O   UNL     1       2.808  -1.798   0.000  0.00  0.00    +0.000 OA
ATOM      4  C   UNL     1       4.951  -1.386   0.000  0.00  0.00    +0.000 C 
ATOM      5  C   UNL     1       4.236  -1.798   0.000  0.00  0.00    +0.000 C 
ATOM      6  C   UNL     1       3.522  -1.386   0.000  0.00  0.00    +0.000 C 
ATOM      7  C   UNL     1       4.951  -0.561   0.000  0.00  0.00    +0.000 C 
ATOM      8  C   UNL     1       3.522  -0.561   0.000  0.00  0.00    +0.000 C 
ENDROOT
BRANCH   8  11
ATOM      9  O   UNL     1       2.093  -0.561   0.000  0.00  0.00    +0.000 OA
ATOM     10  O   UNL     1       2.808   0.677   0.000  0.00  0.00    +0.000 OA
ATOM     11  C   UNL     1       2.808  -0.148   0.000  0.00  0.00    +0.000 C 
ENDBRANCH   8  11
BRANCH   4  12
ATOM     12  O   UNL     1       5.665  -1.798   0.000  0.00  0.00    +0.000 OA
BRANCH  12  17
ATOM     13  O   UNL     1       4.951  -3.036   0.000  0.00  0.00    +0.000 OA
ATOM     14  O   UNL     1       7.094  -2.623   0.000  0.00  0.00    +0.000 OA
ATOM     15  O   UNL     1       7.094  -4.273   0.000  0.00  0.00    +0.000 OA
ATOM     16  O   UNL     1       5.665  -5.098   0.000  0.00  0.00    +0.000 OA
ATOM     17  C   UNL     1       5.665  -2.623   0.000  0.00  0.00    +0.000 C 
ATOM     18  C   UNL     1       6.380  -3.036   0.000  0.00  0.00    +0.000 C 
ATOM     19  C   UNL     1       6.380  -3.861   0.000  0.00  0.00    +0.000 C 
ATOM     20  C   UNL     1       5.665  -4.273   0.000  0.00  0.00    +0.000 C 
ATOM     21  C   UNL     1       4.951  -3.861   0.000  0.00  0.00    +0.000 C 
BRANCH  21  24
ATOM     22  O   UNL     1       4.236  -5.098   0.000  0.00  0.00    +0.000 OA
ATOM     23  O   UNL     1       3.522  -3.861   0.000  0.00  0.00    +0.000 OA
ATOM     24  C   UNL     1       4.236  -4.273   0.000  0.00  0.00    +0.000 C 
ENDBRANCH  21  24
ENDBRANCH  12  17
ENDBRANCH   4  12
BRANCH   7  25
ATOM     25  O   UNL     1       5.665  -0.148   0.000  0.00  0.00    +0.000 OA
BRANCH  25  29
ATOM     26  O   UNL     1       7.114   2.378   0.000  0.00  0.00    +0.000 OA
ATOM     27  O   UNL     1       4.225   2.392   0.000  0.00  0.00    +0.000 OA
ATOM     28  O   UNL     1       4.975   3.624   0.000  0.00  0.00    +0.000 OA
ATOM     29  C   UNL     1       5.665   0.677   0.000  0.00  0.00    +0.000 A 
ATOM     30  C   UNL     1       6.408   1.109   0.000  0.00  0.00    +0.000 A 
ATOM     31  C   UNL     1       4.923   1.109   0.000  0.00  0.00    +0.000 A 
ATOM     32  C   UNL     1       6.398   1.969   0.000  0.00  0.00    +0.000 A 
ATOM     33  C   UNL     1       4.933   1.969   0.000  0.00  0.00    +0.000 A 
ATOM     34  C   UNL     1       5.685   2.384   0.000  0.00  0.00    +0.000 A 
ATOM     35  C   UNL     1       5.688   3.209   0.000  0.00  0.00    +0.000 A 
ATOM     36  C   UNL     1       7.117   3.203   0.000  0.00  0.00    +0.000 A 
ATOM     37  C   UNL     1       6.404   3.619   0.000  0.00  0.00    +0.000 A 
BRANCH  36  39
ATOM     38  O   UNL     1       9.981   4.842   0.000  0.00  0.00    +0.000 OA
ATOM     39  C   UNL     1       7.833   3.613   0.000  0.00  0.00    +0.000 A 
ATOM     40  C   UNL     1       7.836   4.438   0.000  0.00  0.00    +0.000 A 
ATOM     41  C   UNL     1       8.546   3.198   0.000  0.00  0.00    +0.000 A 
ATOM     42  C   UNL     1       8.552   4.848   0.000  0.00  0.00    +0.000 A 
ATOM     43  C   UNL     1       9.262   3.608   0.000  0.00  0.00    +0.000 A 
ATOM     44  C   UNL     1       9.265   4.433   0.000  0.00  0.00    +0.000 A 
ENDBRANCH  36  39
ENDBRANCH  25  29
ENDBRANCH   7  25
TORSDOF 7
