REMARK  Name = 44446832
REMARK  2 active torsions:
REMARK  status: ('A' for Active; 'I' for Inactive)
REMARK    1  A    between atoms: O_4  and  C_16
REMARK    2  A    between atoms: C_6  and  C_10
REMARK                            x       y       z     vdW  Elec       q    Type
REMARK                         _______ _______ _______ _____ _____    ______ ____
ROOT
ATOM      1  O   UNL     1       4.562  -0.629   0.000  0.00  0.00    +0.000 OA
ATOM      2  O   UNL     1       5.991   1.021   0.000  0.00  0.00    +0.000 OA
ATOM      3  O   UNL     1       4.562   1.846   0.000  0.00  0.00    +0.000 OA
ATOM      4  O   UNL     1       1.650  -0.649   0.000  0.00  0.00    +0.000 OA
ATOM      5  C   UNL     1       5.277  -0.216   0.000  0.00  0.00    +0.000 C 
ATOM      6  C   UNL     1       5.277   0.609   0.000  0.00  0.00    +0.000 C 
ATOM      7  C   UNL     1       4.562   1.021   0.000  0.00  0.00    +0.000 C 
ATOM      8  C   UNL     1       3.848   0.609   0.000  0.00  0.00    +0.000 A 
ATOM      9  C   UNL     1       3.848  -0.216   0.000  0.00  0.00    +0.000 A 
ATOM     10  C   UNL     1       3.110   1.050   0.000  0.00  0.00    +0.000 A 
ATOM     11  C   UNL     1       3.110  -0.657   0.000  0.00  0.00    +0.000 A 
ATOM     12  C   UNL     1       2.363   0.626   0.000  0.00  0.00    +0.000 A 
ATOM     13  C   UNL     1       2.363  -0.233   0.000  0.00  0.00    +0.000 A 
ENDROOT
BRANCH   5  14
ATOM     14  C   UNL     1       5.991  -0.629   0.000  0.00  0.00    +0.000 A 
ATOM     15  C   UNL     1       6.706  -0.216   0.000  0.00  0.00    +0.000 A 
ATOM     16  C   UNL     1       5.991  -1.454   0.000  0.00  0.00    +0.000 A 
ATOM     17  C   UNL     1       7.420  -0.629   0.000  0.00  0.00    +0.000 A 
ATOM     18  C   UNL     1       6.706  -1.866   0.000  0.00  0.00    +0.000 A 
ATOM     19  C   UNL     1       7.420  -1.454   0.000  0.00  0.00    +0.000 A 
ENDBRANCH   5  14
BRANCH  12  20
ATOM     20  O   UNL     1       1.650   1.041   0.000  0.00  0.00    +0.000 OA
ATOM     21  C   UNL     1       1.653   1.866   0.000  0.00  0.00    +0.000 C 
ENDBRANCH  12  20
TORSDOF 2
