REMARK  Name = 45360168
REMARK  8 active torsions:
REMARK  status: ('A' for Active; 'I' for Inactive)
REMARK    1  A    between atoms: O_1  and  C_20
REMARK    2  A    between atoms: O_1  and  C_25
REMARK    3  A    between atoms: O_10  and  C_36
REMARK    4  A    between atoms: O_10  and  C_41
REMARK    5  A    between atoms: C_22  and  C_28
REMARK    6  A    between atoms: C_24  and  C_31
REMARK    7  A    between atoms: C_40  and  C_43
REMARK    8  A    between atoms: C_45  and  C_47
REMARK                            x       y       z     vdW  Elec       q    Type
REMARK                         _______ _______ _______ _____ _____    ______ ____
ROOT
ATOM      1  O   UNL     1       7.081   1.036   0.000  0.00  0.00    +0.000 OA
ATOM      2  O   UNL     1       5.665  -1.473   0.000  0.00  0.00    +0.000 OA
ATOM      3  O   UNL     1       9.269  -0.238   0.000  0.00  0.00    +0.000 OA
ATOM      4  C   UNL     1       6.380  -0.236   0.000  0.00  0.00    +0.000 A 
ATOM      5  C   UNL     1       7.094   0.177   0.000  0.00  0.00    +0.000 A 
ATOM      6  C   UNL     1       6.380  -1.061   0.000  0.00  0.00    +0.000 A 
ATOM      7  C   UNL     1       7.809  -0.236   0.000  0.00  0.00    +0.000 A 
ATOM      8  C   UNL     1       7.809  -1.061   0.000  0.00  0.00    +0.000 A 
ATOM      9  C   UNL     1       7.094  -1.473   0.000  0.00  0.00    +0.000 A 
ATOM     10  C   UNL     1       8.559   0.182   0.000  0.00  0.00    +0.000 A 
ATOM     11  C   UNL     1       7.822   1.472   0.000  0.00  0.00    +0.000 A 
ATOM     12  C   UNL     1       8.566   1.042   0.000  0.00  0.00    +0.000 A 
ENDROOT
BRANCH   4  18
ATOM     13  O   UNL     1       5.665   1.002   0.000  0.00  0.00    +0.000 OA
ATOM     14  O   UNL     1       3.522  -0.236   0.000  0.00  0.00    +0.000 OA
ATOM     15  O   UNL     1       3.522   1.414   0.000  0.00  0.00    +0.000 OA
ATOM     16  C   UNL     1       4.951  -0.236   0.000  0.00  0.00    +0.000 C 
ATOM     17  C   UNL     1       4.236   0.177   0.000  0.00  0.00    +0.000 C 
ATOM     18  C   UNL     1       5.665   0.177   0.000  0.00  0.00    +0.000 C 
ATOM     19  C   UNL     1       4.236   1.002   0.000  0.00  0.00    +0.000 C 
ATOM     20  C   UNL     1       4.951   1.414   0.000  0.00  0.00    +0.000 C 
BRANCH  20  22
ATOM     21  O   UNL     1       4.236   2.652   0.000  0.00  0.00    +0.000 OA
ATOM     22  C   UNL     1       4.951   2.239   0.000  0.00  0.00    +0.000 C 
ENDBRANCH  20  22
BRANCH  16  23
ATOM     23  O   UNL     1       4.951  -1.061   0.000  0.00  0.00    +0.000 OA
BRANCH  23  28
ATOM     24  O   UNL     1       3.522  -1.061   0.000  0.00  0.00    +0.000 OA
ATOM     25  O   UNL     1       4.951  -2.711   0.000  0.00  0.00    +0.000 OA
ATOM     26  O   UNL     1       3.522  -3.536   0.000  0.00  0.00    +0.000 OA
ATOM     27  O   UNL     1       2.093  -2.711   0.000  0.00  0.00    +0.000 OA
ATOM     28  C   UNL     1       4.236  -1.473   0.000  0.00  0.00    +0.000 C 
ATOM     29  C   UNL     1       4.236  -2.298   0.000  0.00  0.00    +0.000 C 
ATOM     30  C   UNL     1       3.522  -2.711   0.000  0.00  0.00    +0.000 C 
ATOM     31  C   UNL     1       2.808  -2.298   0.000  0.00  0.00    +0.000 C 
ATOM     32  C   UNL     1       2.808  -1.473   0.000  0.00  0.00    +0.000 C 
ATOM     33  C   UNL     1       2.093  -1.061   0.000  0.00  0.00    +0.000 C 
ENDBRANCH  23  28
ENDBRANCH  16  23
ENDBRANCH   4  18
BRANCH  11  35
ATOM     34  O   UNL     1       7.809   4.771   0.000  0.00  0.00    +0.000 OA
ATOM     35  C   UNL     1       7.819   2.296   0.000  0.00  0.00    +0.000 A 
ATOM     36  C   UNL     1       8.532   2.712   0.000  0.00  0.00    +0.000 A 
ATOM     37  C   UNL     1       7.103   2.706   0.000  0.00  0.00    +0.000 A 
ATOM     38  C   UNL     1       8.528   3.537   0.000  0.00  0.00    +0.000 A 
ATOM     39  C   UNL     1       7.099   3.531   0.000  0.00  0.00    +0.000 A 
ATOM     40  C   UNL     1       7.812   3.946   0.000  0.00  0.00    +0.000 A 
ENDBRANCH  11  35
BRANCH   8  41
ATOM     41  O   UNL     1       8.523  -1.473   0.000  0.00  0.00    +0.000 OA
BRANCH  41  48
ATOM     42  O   UNL     1       9.238  -2.711   0.000  0.00  0.00    +0.000 OA
ATOM     43  O   UNL     1       7.094  -2.298   0.000  0.00  0.00    +0.000 OA
ATOM     44  O   UNL     1       7.094  -3.948   0.000  0.00  0.00    +0.000 OA
ATOM     45  O   UNL     1       8.523  -4.773   0.000  0.00  0.00    +0.000 OA
ATOM     46  C   UNL     1       7.809  -2.711   0.000  0.00  0.00    +0.000 C 
ATOM     47  C   UNL     1       7.809  -3.536   0.000  0.00  0.00    +0.000 C 
ATOM     48  C   UNL     1       8.523  -2.298   0.000  0.00  0.00    +0.000 C 
ATOM     49  C   UNL     1       8.523  -3.948   0.000  0.00  0.00    +0.000 C 
ATOM     50  C   UNL     1       9.238  -3.536   0.000  0.00  0.00    +0.000 C 
BRANCH  50  52
ATOM     51  O   UNL     1      10.667  -3.536   0.000  0.00  0.00    +0.000 OA
ATOM     52  C   UNL     1       9.952  -3.948   0.000  0.00  0.00    +0.000 C 
ENDBRANCH  50  52
ENDBRANCH  41  48
ENDBRANCH   8  41
TORSDOF 8
