REMARK  Name = 44257710
REMARK  9 active torsions:
REMARK  status: ('A' for Active; 'I' for Inactive)
REMARK    1  A    between atoms: O_1  and  C_21
REMARK    2  A    between atoms: O_1  and  C_23
REMARK    3  A    between atoms: O_3  and  C_22
REMARK    4  A    between atoms: O_3  and  C_31
REMARK    5  A    between atoms: C_26  and  C_34
REMARK    6  A    between atoms: C_29  and  C_37
REMARK    7  A    between atoms: C_30  and  C_38
REMARK    8  A    between atoms: C_36  and  C_40
REMARK    9  A    between atoms: C_46  and  C_48
REMARK                            x       y       z     vdW  Elec       q    Type
REMARK                         _______ _______ _______ _____ _____    ______ ____
ROOT
ATOM      1  O   UNL     1       5.665   1.621   0.000  0.00  0.00    +0.000 OA
ATOM      2  O   UNL     1       3.522   0.383   0.000  0.00  0.00    +0.000 OA
ATOM      3  O   UNL     1       3.522   2.033   0.000  0.00  0.00    +0.000 OA
ATOM      4  C   UNL     1       4.951   0.383   0.000  0.00  0.00    +0.000 C 
ATOM      5  C   UNL     1       4.236   0.796   0.000  0.00  0.00    +0.000 C 
ATOM      6  C   UNL     1       5.665   0.796   0.000  0.00  0.00    +0.000 C 
ATOM      7  C   UNL     1       4.236   1.621   0.000  0.00  0.00    +0.000 C 
ATOM      8  C   UNL     1       4.951   2.033   0.000  0.00  0.00    +0.000 C 
ENDROOT
BRANCH   6  13
ATOM      9  O   UNL     1       7.081   1.655   0.000  0.00  0.00    +0.000 OA
ATOM     10  O   UNL     1       5.665  -0.854   0.000  0.00  0.00    +0.000 OA
ATOM     11  O   UNL     1       8.523  -0.854   0.000  0.00  0.00    +0.000 OA
ATOM     12  O   UNL     1       9.269   0.381   0.000  0.00  0.00    +0.000 OA
ATOM     13  C   UNL     1       6.380   0.383   0.000  0.00  0.00    +0.000 A 
ATOM     14  C   UNL     1       7.094   0.796   0.000  0.00  0.00    +0.000 A 
ATOM     15  C   UNL     1       6.380  -0.442   0.000  0.00  0.00    +0.000 A 
ATOM     16  C   UNL     1       7.809   0.383   0.000  0.00  0.00    +0.000 A 
ATOM     17  C   UNL     1       7.094  -0.854   0.000  0.00  0.00    +0.000 A 
ATOM     18  C   UNL     1       7.809  -0.442   0.000  0.00  0.00    +0.000 A 
ATOM     19  C   UNL     1       8.559   0.801   0.000  0.00  0.00    +0.000 A 
ATOM     20  C   UNL     1       7.822   2.090   0.000  0.00  0.00    +0.000 A 
ATOM     21  C   UNL     1       8.566   1.661   0.000  0.00  0.00    +0.000 A 
BRANCH  20  23
ATOM     22  O   UNL     1       7.809   5.390   0.000  0.00  0.00    +0.000 OA
ATOM     23  C   UNL     1       7.819   2.915   0.000  0.00  0.00    +0.000 A 
ATOM     24  C   UNL     1       8.532   3.330   0.000  0.00  0.00    +0.000 A 
ATOM     25  C   UNL     1       7.103   3.325   0.000  0.00  0.00    +0.000 A 
ATOM     26  C   UNL     1       8.528   4.155   0.000  0.00  0.00    +0.000 A 
ATOM     27  C   UNL     1       7.099   4.150   0.000  0.00  0.00    +0.000 A 
ATOM     28  C   UNL     1       7.812   4.565   0.000  0.00  0.00    +0.000 A 
ENDBRANCH  20  23
ENDBRANCH   6  13
BRANCH   8  30
ATOM     29  O   UNL     1       4.236   3.271   0.000  0.00  0.00    +0.000 OA
ATOM     30  C   UNL     1       4.951   2.858   0.000  0.00  0.00    +0.000 C 
ENDBRANCH   8  30
BRANCH   4  31
ATOM     31  O   UNL     1       4.951  -0.442   0.000  0.00  0.00    +0.000 OA
BRANCH  31  36
ATOM     32  O   UNL     1       3.522  -0.442   0.000  0.00  0.00    +0.000 OA
ATOM     33  O   UNL     1       3.522  -2.917   0.000  0.00  0.00    +0.000 OA
ATOM     34  O   UNL     1       2.093  -2.092   0.000  0.00  0.00    +0.000 OA
ATOM     35  C   UNL     1       4.236  -1.679   0.000  0.00  0.00    +0.000 C 
ATOM     36  C   UNL     1       4.236  -0.854   0.000  0.00  0.00    +0.000 C 
ATOM     37  C   UNL     1       3.522  -2.092   0.000  0.00  0.00    +0.000 C 
ATOM     38  C   UNL     1       2.808  -1.679   0.000  0.00  0.00    +0.000 C 
ATOM     39  C   UNL     1       2.808  -0.854   0.000  0.00  0.00    +0.000 C 
BRANCH  39  41
ATOM     40  O   UNL     1       2.093   0.383   0.000  0.00  0.00    +0.000 OA
ATOM     41  C   UNL     1       2.093  -0.442   0.000  0.00  0.00    +0.000 C 
ENDBRANCH  39  41
BRANCH  35  42
ATOM     42  O   UNL     1       4.951  -2.092   0.000  0.00  0.00    +0.000 OA
BRANCH  42  47
ATOM     43  O   UNL     1       4.236  -3.329   0.000  0.00  0.00    +0.000 OA
ATOM     44  O   UNL     1       6.380  -2.917   0.000  0.00  0.00    +0.000 OA
ATOM     45  O   UNL     1       6.380  -4.567   0.000  0.00  0.00    +0.000 OA
ATOM     46  O   UNL     1       4.951  -5.392   0.000  0.00  0.00    +0.000 OA
ATOM     47  C   UNL     1       4.951  -2.917   0.000  0.00  0.00    +0.000 C 
ATOM     48  C   UNL     1       5.665  -3.329   0.000  0.00  0.00    +0.000 C 
ATOM     49  C   UNL     1       5.665  -4.154   0.000  0.00  0.00    +0.000 C 
ATOM     50  C   UNL     1       4.951  -4.567   0.000  0.00  0.00    +0.000 C 
ATOM     51  C   UNL     1       4.236  -4.154   0.000  0.00  0.00    +0.000 C 
BRANCH  51  53
ATOM     52  O   UNL     1       2.808  -4.154   0.000  0.00  0.00    +0.000 OA
ATOM     53  C   UNL     1       3.522  -4.567   0.000  0.00  0.00    +0.000 C 
ENDBRANCH  51  53
ENDBRANCH  42  47
ENDBRANCH  35  42
ENDBRANCH  31  36
ENDBRANCH   4  31
TORSDOF 9
