REMARK  Name = 131831912
REMARK  3 active torsions:
REMARK  status: ('A' for Active; 'I' for Inactive)
REMARK    1  A    between atoms: S_1  and  O_3
REMARK    2  A    between atoms: O_3  and  C_11
REMARK    3  A    between atoms: C_10  and  C_13
REMARK                            x       y       z     vdW  Elec       q    Type
REMARK                         _______ _______ _______ _____ _____    ______ ____
ROOT
ATOM      1  O   UNL     1       5.006  -1.159   0.000  0.00  0.00    +0.000 OA
ATOM      2  O   UNL     1       5.006   1.316   0.000  0.00  0.00    +0.000 OA
ATOM      3  O   UNL     1       3.564   1.344   0.000  0.00  0.00    +0.000 OA
ATOM      4  O   UNL     1       2.094  -1.179   0.000  0.00  0.00    +0.000 OA
ATOM      5  C   UNL     1       5.721  -0.747   0.000  0.00  0.00    +0.000 C 
ATOM      6  C   UNL     1       5.721   0.078   0.000  0.00  0.00    +0.000 C 
ATOM      7  C   UNL     1       5.006   0.491   0.000  0.00  0.00    +0.000 C 
ATOM      8  C   UNL     1       4.292   0.078   0.000  0.00  0.00    +0.000 A 
ATOM      9  C   UNL     1       4.292  -0.747   0.000  0.00  0.00    +0.000 A 
ATOM     10  C   UNL     1       3.554   0.519   0.000  0.00  0.00    +0.000 A 
ATOM     11  C   UNL     1       3.554  -1.188   0.000  0.00  0.00    +0.000 A 
ATOM     12  C   UNL     1       2.807   0.096   0.000  0.00  0.00    +0.000 A 
ATOM     13  C   UNL     1       2.807  -0.764   0.000  0.00  0.00    +0.000 A 
ENDROOT
BRANCH   5  14
ATOM     14  C   UNL     1       6.435  -1.159   0.000  0.00  0.00    +0.000 A 
ATOM     15  C   UNL     1       7.150  -0.747   0.000  0.00  0.00    +0.000 A 
ATOM     16  C   UNL     1       6.435  -1.984   0.000  0.00  0.00    +0.000 A 
ATOM     17  C   UNL     1       7.864  -1.159   0.000  0.00  0.00    +0.000 A 
ATOM     18  C   UNL     1       7.150  -2.397   0.000  0.00  0.00    +0.000 A 
ATOM     19  C   UNL     1       7.864  -1.984   0.000  0.00  0.00    +0.000 A 
ENDBRANCH   5  14
BRANCH   6  20
ATOM     20  O   UNL     1       6.435   0.491   0.000  0.00  0.00    +0.000 OA
BRANCH  20  21
ATOM     21  S   UNL     1       6.435   1.316   0.000  0.00  0.00    +0.000 S 
ATOM     22  O   UNL     1       6.435   2.141   0.000  0.00  0.00    +0.000 OA
ATOM     23  O   UNL     1       7.260   1.316   0.000  0.00  0.00    +0.000 OA
ATOM     24  O   UNL     1       5.610   1.316   0.000  0.00  0.00    +0.000 OA
ENDBRANCH  20  21
ENDBRANCH   6  20
TORSDOF 3
