REMARK  Name = 44258220
REMARK  6 active torsions:
REMARK  status: ('A' for Active; 'I' for Inactive)
REMARK    1  A    between atoms: O_5  and  C_24
REMARK    2  A    between atoms: O_5  and  C_33
REMARK    3  A    between atoms: O_13  and  C_38
REMARK    4  A    between atoms: C_16  and  C_25
REMARK    5  A    between atoms: C_23  and  C_27
REMARK    6  A    between atoms: C_35  and  C_36
REMARK                            x       y       z     vdW  Elec       q    Type
REMARK                         _______ _______ _______ _____ _____    ______ ____
ROOT
ATOM      1  O   UNL     1       6.683   1.040   0.000  0.00  0.00    +0.000 OA
ATOM      2  O   UNL     1       3.789   1.056   0.000  0.00  0.00    +0.000 OA
ATOM      3  O   UNL     1       5.227   3.526   0.000  0.00  0.00    +0.000 OA
ATOM      4  O   UNL     1       4.480  -0.210   0.000  0.00  0.00    +0.000 OA
ATOM      5  C   UNL     1       4.508   2.291   0.000  0.00  0.00    +0.000 A 
ATOM      6  C   UNL     1       4.505   1.466   0.000  0.00  0.00    +0.000 A 
ATOM      7  C   UNL     1       5.224   2.701   0.000  0.00  0.00    +0.000 A 
ATOM      8  C   UNL     1       5.218   1.051   0.000  0.00  0.00    +0.000 A 
ATOM      9  C   UNL     1       5.934   1.461   0.000  0.00  0.00    +0.000 A 
ATOM     10  C   UNL     1       5.937   2.286   0.000  0.00  0.00    +0.000 A 
ATOM     11  C   UNL     1       5.201   0.192   0.000  0.00  0.00    +0.000 A 
ATOM     12  C   UNL     1       6.686   0.180   0.000  0.00  0.00    +0.000 A 
ATOM     13  C   UNL     1       5.940  -0.247   0.000  0.00  0.00    +0.000 A 
ENDROOT
BRANCH   5  18
ATOM     14  O   UNL     1       3.079   2.297   0.000  0.00  0.00    +0.000 OA
ATOM     15  O   UNL     1       3.088   4.772   0.000  0.00  0.00    +0.000 OA
ATOM     16  O   UNL     1       1.656   3.952   0.000  0.00  0.00    +0.000 OA
ATOM     17  C   UNL     1       3.085   3.947   0.000  0.00  0.00    +0.000 C 
ATOM     18  C   UNL     1       3.795   2.706   0.000  0.00  0.00    +0.000 C 
ATOM     19  C   UNL     1       2.369   3.537   0.000  0.00  0.00    +0.000 C 
ATOM     20  C   UNL     1       3.798   3.531   0.000  0.00  0.00    +0.000 C 
ATOM     21  C   UNL     1       2.366   2.712   0.000  0.00  0.00    +0.000 C 
ATOM     22  C   UNL     1       1.650   2.302   0.000  0.00  0.00    +0.000 C 
ENDBRANCH   5  18
BRANCH  12  24
ATOM     23  C   UNL     1       8.115  -1.470   0.000  0.00  0.00    +0.000 A 
ATOM     24  C   UNL     1       7.401  -0.232   0.000  0.00  0.00    +0.000 A 
ATOM     25  C   UNL     1       7.401  -1.057   0.000  0.00  0.00    +0.000 A 
ATOM     26  C   UNL     1       8.829  -1.057   0.000  0.00  0.00    +0.000 A 
ATOM     27  C   UNL     1       8.115   0.180   0.000  0.00  0.00    +0.000 A 
ATOM     28  C   UNL     1       8.829  -0.232   0.000  0.00  0.00    +0.000 A 
BRANCH  26  29
ATOM     29  O   UNL     1       9.544  -1.470   0.000  0.00  0.00    +0.000 OA
ATOM     30  C   UNL     1      10.258  -1.057   0.000  0.00  0.00    +0.000 C 
ENDBRANCH  26  29
BRANCH  23  31
ATOM     31  O   UNL     1       8.115  -2.295   0.000  0.00  0.00    +0.000 OA
BRANCH  31  40
ATOM     32  O   UNL     1       6.686  -2.295   0.000  0.00  0.00    +0.000 OA
ATOM     33  O   UNL     1       6.686  -4.770   0.000  0.00  0.00    +0.000 OA
ATOM     34  O   UNL     1       5.257  -3.945   0.000  0.00  0.00    +0.000 OA
ATOM     35  O   UNL     1       8.115  -3.945   0.000  0.00  0.00    +0.000 OA
ATOM     36  C   UNL     1       6.686  -3.945   0.000  0.00  0.00    +0.000 C 
ATOM     37  C   UNL     1       5.972  -3.532   0.000  0.00  0.00    +0.000 C 
ATOM     38  C   UNL     1       7.401  -3.532   0.000  0.00  0.00    +0.000 C 
ATOM     39  C   UNL     1       5.972  -2.707   0.000  0.00  0.00    +0.000 C 
ATOM     40  C   UNL     1       7.401  -2.707   0.000  0.00  0.00    +0.000 C 
BRANCH  39  42
ATOM     41  O   UNL     1       4.543  -2.707   0.000  0.00  0.00    +0.000 OA
ATOM     42  C   UNL     1       5.257  -2.295   0.000  0.00  0.00    +0.000 C 
ENDBRANCH  39  42
ENDBRANCH  31  40
ENDBRANCH  23  31
ENDBRANCH  12  24
TORSDOF 6
