REMARK  Name = 5351495
REMARK  9 active torsions:
REMARK  status: ('A' for Active; 'I' for Inactive)
REMARK    1  A    between atoms: O_1  and  C_21
REMARK    2  A    between atoms: O_1  and  C_26
REMARK    3  A    between atoms: O_3  and  C_24
REMARK    4  A    between atoms: O_3  and  C_34
REMARK    5  A    between atoms: O_13  and  C_36
REMARK    6  A    between atoms: O_13  and  C_39
REMARK    7  A    between atoms: O_18  and  C_50
REMARK    8  A    between atoms: C_29  and  C_34
REMARK    9  A    between atoms: C_40  and  C_43
REMARK                            x       y       z     vdW  Elec       q    Type
REMARK                         _______ _______ _______ _____ _____    ______ ____
ROOT
ATOM      1  O   UNL     1       7.094   1.316   0.000  0.00  0.00    +0.000 OA
ATOM      2  O   UNL     1       7.809  -0.747   0.000  0.00  0.00    +0.000 OA
ATOM      3  O   UNL     1       9.238   0.078   0.000  0.00  0.00    +0.000 OA
ATOM      4  O   UNL     1       9.238   1.728   0.000  0.00  0.00    +0.000 OA
ATOM      5  C   UNL     1       7.094   0.491   0.000  0.00  0.00    +0.000 C 
ATOM      6  C   UNL     1       7.809   0.078   0.000  0.00  0.00    +0.000 C 
ATOM      7  C   UNL     1       8.523   0.491   0.000  0.00  0.00    +0.000 C 
ATOM      8  C   UNL     1       8.523   1.316   0.000  0.00  0.00    +0.000 C 
ATOM      9  C   UNL     1       7.809   1.728   0.000  0.00  0.00    +0.000 C 
ENDROOT
BRANCH   9  10
ATOM     10  O   UNL     1       7.809   2.553   0.000  0.00  0.00    +0.000 OA
BRANCH  10  14
ATOM     11  O   UNL     1       6.380   4.203   0.000  0.00  0.00    +0.000 OA
ATOM     12  O   UNL     1       6.380   1.728   0.000  0.00  0.00    +0.000 OA
ATOM     13  O   UNL     1       4.937   1.700   0.000  0.00  0.00    +0.000 OA
ATOM     14  C   UNL     1       7.094   2.966   0.000  0.00  0.00    +0.000 A 
ATOM     15  C   UNL     1       7.094   3.791   0.000  0.00  0.00    +0.000 A 
ATOM     16  C   UNL     1       6.380   2.553   0.000  0.00  0.00    +0.000 A 
ATOM     17  C   UNL     1       5.665   2.966   0.000  0.00  0.00    +0.000 A 
ATOM     18  C   UNL     1       5.665   3.791   0.000  0.00  0.00    +0.000 A 
ATOM     19  C   UNL     1       4.928   2.525   0.000  0.00  0.00    +0.000 A 
ATOM     20  C   UNL     1       4.928   4.232   0.000  0.00  0.00    +0.000 A 
ATOM     21  C   UNL     1       4.180   2.949   0.000  0.00  0.00    +0.000 A 
ATOM     22  C   UNL     1       4.180   3.808   0.000  0.00  0.00    +0.000 A 
BRANCH  15  25
ATOM     23  O   UNL     1       9.952   3.791   0.000  0.00  0.00    +0.000 OA
ATOM     24  O   UNL     1       9.952   5.441   0.000  0.00  0.00    +0.000 OA
ATOM     25  C   UNL     1       7.809   4.203   0.000  0.00  0.00    +0.000 A 
ATOM     26  C   UNL     1       8.523   3.791   0.000  0.00  0.00    +0.000 A 
ATOM     27  C   UNL     1       7.809   5.028   0.000  0.00  0.00    +0.000 A 
ATOM     28  C   UNL     1       9.238   4.203   0.000  0.00  0.00    +0.000 A 
ATOM     29  C   UNL     1       8.523   5.441   0.000  0.00  0.00    +0.000 A 
ATOM     30  C   UNL     1       9.238   5.028   0.000  0.00  0.00    +0.000 A 
ENDBRANCH  15  25
BRANCH  22  31
ATOM     31  O   UNL     1       3.467   4.223   0.000  0.00  0.00    +0.000 OA
ATOM     32  C   UNL     1       2.751   3.814   0.000  0.00  0.00    +0.000 C 
ENDBRANCH  22  31
ENDBRANCH  10  14
ENDBRANCH   9  10
BRANCH   5  33
ATOM     33  C   UNL     1       6.380   0.078   0.000  0.00  0.00    +0.000 C 
BRANCH  33  34
ATOM     34  O   UNL     1       6.380  -0.747   0.000  0.00  0.00    +0.000 OA
BRANCH  34  41
ATOM     35  O   UNL     1       4.951  -0.747   0.000  0.00  0.00    +0.000 OA
ATOM     36  O   UNL     1       6.380  -2.397   0.000  0.00  0.00    +0.000 OA
ATOM     37  O   UNL     1       3.522  -2.397   0.000  0.00  0.00    +0.000 OA
ATOM     38  C   UNL     1       4.951  -2.397   0.000  0.00  0.00    +0.000 C 
ATOM     39  C   UNL     1       5.665  -1.984   0.000  0.00  0.00    +0.000 C 
ATOM     40  C   UNL     1       4.236  -1.984   0.000  0.00  0.00    +0.000 C 
ATOM     41  C   UNL     1       5.665  -1.159   0.000  0.00  0.00    +0.000 C 
ATOM     42  C   UNL     1       4.236  -1.159   0.000  0.00  0.00    +0.000 C 
ATOM     43  C   UNL     1       3.522  -0.747   0.000  0.00  0.00    +0.000 C 
BRANCH  38  44
ATOM     44  O   UNL     1       4.951  -3.222   0.000  0.00  0.00    +0.000 OA
BRANCH  44  49
ATOM     45  O   UNL     1       3.522  -3.222   0.000  0.00  0.00    +0.000 OA
ATOM     46  O   UNL     1       4.951  -4.872   0.000  0.00  0.00    +0.000 OA
ATOM     47  O   UNL     1       3.522  -5.697   0.000  0.00  0.00    +0.000 OA
ATOM     48  O   UNL     1       2.093  -4.872   0.000  0.00  0.00    +0.000 OA
ATOM     49  C   UNL     1       4.236  -3.634   0.000  0.00  0.00    +0.000 C 
ATOM     50  C   UNL     1       4.236  -4.459   0.000  0.00  0.00    +0.000 C 
ATOM     51  C   UNL     1       3.522  -4.872   0.000  0.00  0.00    +0.000 C 
ATOM     52  C   UNL     1       2.808  -4.459   0.000  0.00  0.00    +0.000 C 
ATOM     53  C   UNL     1       2.808  -3.634   0.000  0.00  0.00    +0.000 C 
ATOM     54  C   UNL     1       2.093  -3.222   0.000  0.00  0.00    +0.000 C 
ENDBRANCH  44  49
ENDBRANCH  38  44
ENDBRANCH  34  41
ENDBRANCH  33  34
ENDBRANCH   5  33
TORSDOF 9
