REMARK  Name = 24039364
REMARK  10 active torsions:
REMARK  status: ('A' for Active; 'I' for Inactive)
REMARK    1  A    between atoms: O_4  and  C_19
REMARK    2  A    between atoms: O_4  and  C_21
REMARK    3  A    between atoms: O_6  and  C_20
REMARK    4  A    between atoms: O_6  and  C_24
REMARK    5  A    between atoms: C_17  and  C_20
REMARK    6  A    between atoms: C_24  and  C_28
REMARK    7  A    between atoms: C_25  and  C_29
REMARK    8  A    between atoms: C_29  and  C_30
REMARK    9  A    between atoms: C_30  and  C_31
REMARK   10  A    between atoms: C_31  and  C_34
REMARK                            x       y       z     vdW  Elec       q    Type
REMARK                         _______ _______ _______ _____ _____    ______ ____
ROOT
ATOM      1  O   UNL     1       7.809  -1.984   0.000  0.00  0.00    +0.000 OA
ATOM      2  O   UNL     1       6.380  -3.634   0.000  0.00  0.00    +0.000 OA
ATOM      3  O   UNL     1       7.809  -4.459   0.000  0.00  0.00    +0.000 OA
ATOM      4  O   UNL     1       9.238  -3.634   0.000  0.00  0.00    +0.000 OA
ATOM      5  C   UNL     1       7.094  -3.222   0.000  0.00  0.00    +0.000 C 
ATOM      6  C   UNL     1       7.809  -3.634   0.000  0.00  0.00    +0.000 C 
ATOM      7  C   UNL     1       7.094  -2.397   0.000  0.00  0.00    +0.000 C 
ATOM      8  C   UNL     1       8.523  -3.222   0.000  0.00  0.00    +0.000 C 
ATOM      9  C   UNL     1       8.523  -2.397   0.000  0.00  0.00    +0.000 C 
ENDROOT
BRANCH   9  10
ATOM     10  O   UNL     1       9.238  -1.984   0.000  0.00  0.00    +0.000 OA
BRANCH  10  13
ATOM     11  O   UNL     1       7.809   0.491   0.000  0.00  0.00    +0.000 OA
ATOM     12  O   UNL     1      10.667   0.491   0.000  0.00  0.00    +0.000 OA
ATOM     13  C   UNL     1       9.238  -1.159   0.000  0.00  0.00    +0.000 A 
ATOM     14  C   UNL     1       9.952  -0.747   0.000  0.00  0.00    +0.000 A 
ATOM     15  C   UNL     1       8.523  -0.747   0.000  0.00  0.00    +0.000 A 
ATOM     16  C   UNL     1       9.238   0.491   0.000  0.00  0.00    +0.000 A 
ATOM     17  C   UNL     1       8.523   0.078   0.000  0.00  0.00    +0.000 A 
ATOM     18  C   UNL     1       9.952   0.078   0.000  0.00  0.00    +0.000 A 
BRANCH  16  20
ATOM     19  O   UNL     1       8.523   1.728   0.000  0.00  0.00    +0.000 OA
ATOM     20  C   UNL     1       9.238   1.316   0.000  0.00  0.00    +0.000 C 
BRANCH  20  21
ATOM     21  C   UNL     1       9.952   1.728   0.000  0.00  0.00    +0.000 C 
BRANCH  21  22
ATOM     22  C   UNL     1       9.952   2.553   0.000  0.00  0.00    +0.000 C 
BRANCH  22  24
ATOM     23  O   UNL     1      12.810   4.204   0.000  0.00  0.00    +0.000 OA
ATOM     24  C   UNL     1      10.667   2.966   0.000  0.00  0.00    +0.000 A 
ATOM     25  C   UNL     1      10.667   3.791   0.000  0.00  0.00    +0.000 A 
ATOM     26  C   UNL     1      11.381   2.553   0.000  0.00  0.00    +0.000 A 
ATOM     27  C   UNL     1      11.381   4.204   0.000  0.00  0.00    +0.000 A 
ATOM     28  C   UNL     1      12.096   2.966   0.000  0.00  0.00    +0.000 A 
ATOM     29  C   UNL     1      12.096   3.791   0.000  0.00  0.00    +0.000 A 
ENDBRANCH  22  24
ENDBRANCH  21  22
ENDBRANCH  20  21
ENDBRANCH  16  20
ENDBRANCH  10  13
ENDBRANCH   9  10
BRANCH   7  30
ATOM     30  C   UNL     1       6.380  -1.984   0.000  0.00  0.00    +0.000 C 
BRANCH  30  31
ATOM     31  O   UNL     1       5.665  -2.397   0.000  0.00  0.00    +0.000 OA
BRANCH  31  33
ATOM     32  O   UNL     1       4.951  -1.159   0.000  0.00  0.00    +0.000 OA
ATOM     33  C   UNL     1       4.951  -1.984   0.000  0.00  0.00    +0.000 C 
BRANCH  33  37
ATOM     34  O   UNL     1       3.522  -4.459   0.000  0.00  0.00    +0.000 OA
ATOM     35  O   UNL     1       2.093  -1.984   0.000  0.00  0.00    +0.000 OA
ATOM     36  O   UNL     1       2.093  -3.634   0.000  0.00  0.00    +0.000 OA
ATOM     37  C   UNL     1       4.237  -2.397   0.000  0.00  0.00    +0.000 A 
ATOM     38  C   UNL     1       3.522  -1.984   0.000  0.00  0.00    +0.000 A 
ATOM     39  C   UNL     1       4.237  -3.222   0.000  0.00  0.00    +0.000 A 
ATOM     40  C   UNL     1       3.522  -3.634   0.000  0.00  0.00    +0.000 A 
ATOM     41  C   UNL     1       2.808  -2.397   0.000  0.00  0.00    +0.000 A 
ATOM     42  C   UNL     1       2.808  -3.222   0.000  0.00  0.00    +0.000 A 
ENDBRANCH  33  37
ENDBRANCH  31  33
ENDBRANCH  30  31
ENDBRANCH   7  30
TORSDOF 10
