REMARK  Name = 9894584
REMARK  9 active torsions:
REMARK  status: ('A' for Active; 'I' for Inactive)
REMARK    1  A    between atoms: O_1  and  C_15
REMARK    2  A    between atoms: O_1  and  C_18
REMARK    3  A    between atoms: O_5  and  C_20
REMARK    4  A    between atoms: O_5  and  C_27
REMARK    5  A    between atoms: C_21  and  C_25
REMARK    6  A    between atoms: C_32  and  C_33
REMARK    7  A    between atoms: C_33  and  C_34
REMARK    8  A    between atoms: C_34  and  C_35
REMARK    9  A    between atoms: C_35  and  C_36
REMARK                            x       y       z     vdW  Elec       q    Type
REMARK                         _______ _______ _______ _____ _____    ______ ____
ROOT
ATOM      1  O   UNL     1       4.236  -1.984   0.000  0.00  0.00    +0.000 OA
ATOM      2  O   UNL     1       4.236  -4.459   0.000  0.00  0.00    +0.000 OA
ATOM      3  O   UNL     1       2.808  -3.634   0.000  0.00  0.00    +0.000 OA
ATOM      4  C   UNL     1       4.951  -3.222   0.000  0.00  0.00    +0.000 C 
ATOM      5  C   UNL     1       4.236  -3.634   0.000  0.00  0.00    +0.000 C 
ATOM      6  C   UNL     1       3.522  -3.222   0.000  0.00  0.00    +0.000 C 
ATOM      7  C   UNL     1       4.951  -2.397   0.000  0.00  0.00    +0.000 C 
ATOM      8  C   UNL     1       3.522  -2.397   0.000  0.00  0.00    +0.000 C 
ENDROOT
BRANCH   8  10
ATOM      9  O   UNL     1       2.093  -2.397   0.000  0.00  0.00    +0.000 OA
ATOM     10  C   UNL     1       2.808  -1.984   0.000  0.00  0.00    +0.000 C 
ENDBRANCH   8  10
BRANCH   4  11
ATOM     11  O   UNL     1       5.665  -3.634   0.000  0.00  0.00    +0.000 OA
BRANCH  11  16
ATOM     12  O   UNL     1       6.380  -2.397   0.000  0.00  0.00    +0.000 OA
ATOM     13  O   UNL     1       7.094  -4.459   0.000  0.00  0.00    +0.000 OA
ATOM     14  O   UNL     1       8.523  -3.634   0.000  0.00  0.00    +0.000 OA
ATOM     15  O   UNL     1       8.523  -1.984   0.000  0.00  0.00    +0.000 OA
ATOM     16  C   UNL     1       6.380  -3.222   0.000  0.00  0.00    +0.000 C 
ATOM     17  C   UNL     1       7.094  -3.634   0.000  0.00  0.00    +0.000 C 
ATOM     18  C   UNL     1       7.809  -3.222   0.000  0.00  0.00    +0.000 C 
ATOM     19  C   UNL     1       7.809  -2.397   0.000  0.00  0.00    +0.000 C 
ATOM     20  C   UNL     1       7.094  -1.984   0.000  0.00  0.00    +0.000 C 
ATOM     21  C   UNL     1       7.094  -1.159   0.000  0.00  0.00    +0.000 C 
ENDBRANCH  11  16
ENDBRANCH   4  11
BRANCH   7  22
ATOM     22  O   UNL     1       5.665  -1.984   0.000  0.00  0.00    +0.000 OA
BRANCH  22  25
ATOM     23  O   UNL     1       7.094   0.491   0.000  0.00  0.00    +0.000 OA
ATOM     24  O   UNL     1       4.236   0.491   0.000  0.00  0.00    +0.000 OA
ATOM     25  C   UNL     1       5.665  -1.159   0.000  0.00  0.00    +0.000 A 
ATOM     26  C   UNL     1       4.951  -0.747   0.000  0.00  0.00    +0.000 A 
ATOM     27  C   UNL     1       6.380  -0.747   0.000  0.00  0.00    +0.000 A 
ATOM     28  C   UNL     1       6.380   0.078   0.000  0.00  0.00    +0.000 A 
ATOM     29  C   UNL     1       4.951   0.078   0.000  0.00  0.00    +0.000 A 
ATOM     30  C   UNL     1       5.665   0.491   0.000  0.00  0.00    +0.000 A 
BRANCH  30  32
ATOM     31  O   UNL     1       4.951   1.728   0.000  0.00  0.00    +0.000 OA
ATOM     32  C   UNL     1       5.665   1.316   0.000  0.00  0.00    +0.000 C 
BRANCH  32  33
ATOM     33  C   UNL     1       6.380   1.728   0.000  0.00  0.00    +0.000 C 
BRANCH  33  34
ATOM     34  C   UNL     1       6.380   2.553   0.000  0.00  0.00    +0.000 C 
BRANCH  34  36
ATOM     35  O   UNL     1       9.238   4.203   0.000  0.00  0.00    +0.000 OA
ATOM     36  C   UNL     1       7.094   2.966   0.000  0.00  0.00    +0.000 A 
ATOM     37  C   UNL     1       7.094   3.791   0.000  0.00  0.00    +0.000 A 
ATOM     38  C   UNL     1       7.809   2.553   0.000  0.00  0.00    +0.000 A 
ATOM     39  C   UNL     1       7.809   4.203   0.000  0.00  0.00    +0.000 A 
ATOM     40  C   UNL     1       8.523   2.966   0.000  0.00  0.00    +0.000 A 
ATOM     41  C   UNL     1       8.523   3.791   0.000  0.00  0.00    +0.000 A 
ENDBRANCH  34  36
ENDBRANCH  33  34
ENDBRANCH  32  33
ENDBRANCH  30  32
ENDBRANCH  22  25
ENDBRANCH   7  22
TORSDOF 9
