REMARK  Name = 131834457
REMARK  7 active torsions:
REMARK  status: ('A' for Active; 'I' for Inactive)
REMARK    1  A    between atoms: O_2  and  C_14
REMARK    2  A    between atoms: O_2  and  C_17
REMARK    3  A    between atoms: C_15  and  C_16
REMARK    4  A    between atoms: C_18  and  C_20
REMARK    5  A    between atoms: C_20  and  C_21
REMARK    6  A    between atoms: C_21  and  C_23
REMARK    7  A    between atoms: C_23  and  C_26
REMARK                            x       y       z     vdW  Elec       q    Type
REMARK                         _______ _______ _______ _____ _____    ______ ____
ROOT
ATOM      1  O   UNL     1       7.094   2.347   0.000  0.00  0.00    +0.000 OA
ATOM      2  O   UNL     1       4.237   2.347   0.000  0.00  0.00    +0.000 OA
ATOM      3  C   UNL     1       5.665   0.697   0.000  0.00  0.00    +0.000 A 
ATOM      4  C   UNL     1       6.380   1.110   0.000  0.00  0.00    +0.000 A 
ATOM      5  C   UNL     1       4.951   1.110   0.000  0.00  0.00    +0.000 A 
ATOM      6  C   UNL     1       6.380   1.935   0.000  0.00  0.00    +0.000 A 
ATOM      7  C   UNL     1       4.951   1.935   0.000  0.00  0.00    +0.000 A 
ATOM      8  C   UNL     1       5.665   2.347   0.000  0.00  0.00    +0.000 A 
ENDROOT
BRANCH   4  10
ATOM      9  O   UNL     1       7.094  -0.128   0.000  0.00  0.00    +0.000 OA
ATOM     10  C   UNL     1       7.094   0.697   0.000  0.00  0.00    +0.000 C 
BRANCH  10  11
ATOM     11  C   UNL     1       7.809   1.110   0.000  0.00  0.00    +0.000 C 
BRANCH  11  12
ATOM     12  C   UNL     1       8.523   0.697   0.000  0.00  0.00    +0.000 C 
BRANCH  12  13
ATOM     13  C   UNL     1       9.238   1.110   0.000  0.00  0.00    +0.000 A 
ATOM     14  C   UNL     1       9.238   1.935   0.000  0.00  0.00    +0.000 A 
ATOM     15  C   UNL     1       9.952   0.697   0.000  0.00  0.00    +0.000 A 
ATOM     16  C   UNL     1       9.952   2.347   0.000  0.00  0.00    +0.000 A 
ATOM     17  C   UNL     1      10.667   1.110   0.000  0.00  0.00    +0.000 A 
ATOM     18  C   UNL     1      10.667   1.935   0.000  0.00  0.00    +0.000 A 
ENDBRANCH  12  13
ENDBRANCH  11  12
ENDBRANCH  10  11
ENDBRANCH   4  10
BRANCH   3  19
ATOM     19  O   UNL     1       5.665  -0.128   0.000  0.00  0.00    +0.000 OA
BRANCH  19  27
ATOM     20  O   UNL     1       4.237  -0.128   0.000  0.00  0.00    +0.000 OA
ATOM     21  O   UNL     1       4.237  -2.603   0.000  0.00  0.00    +0.000 OA
ATOM     22  O   UNL     1       5.665  -1.778   0.000  0.00  0.00    +0.000 OA
ATOM     23  O   UNL     1       2.808  -1.778   0.000  0.00  0.00    +0.000 OA
ATOM     24  C   UNL     1       4.237  -1.778   0.000  0.00  0.00    +0.000 C 
ATOM     25  C   UNL     1       4.951  -1.365   0.000  0.00  0.00    +0.000 C 
ATOM     26  C   UNL     1       3.522  -1.365   0.000  0.00  0.00    +0.000 C 
ATOM     27  C   UNL     1       4.951  -0.540   0.000  0.00  0.00    +0.000 C 
ATOM     28  C   UNL     1       3.522  -0.540   0.000  0.00  0.00    +0.000 C 
BRANCH  28  31
ATOM     29  O   UNL     1       2.093  -0.540   0.000  0.00  0.00    +0.000 OA
ATOM     30  O   UNL     1       2.808   0.697   0.000  0.00  0.00    +0.000 OA
ATOM     31  C   UNL     1       2.808  -0.128   0.000  0.00  0.00    +0.000 C 
ENDBRANCH  28  31
ENDBRANCH  19  27
ENDBRANCH   3  19
TORSDOF 7
