REMARK  Name = 77170750
REMARK  4 active torsions:
REMARK  status: ('A' for Active; 'I' for Inactive)
REMARK    1  A    between atoms: O_2  and  C_13
REMARK    2  A    between atoms: O_2  and  C_16
REMARK    3  A    between atoms: C_14  and  C_15
REMARK    4  A    between atoms: C_17  and  C_21
REMARK                            x       y       z     vdW  Elec       q    Type
REMARK                         _______ _______ _______ _____ _____    ______ ____
ROOT
ATOM      1  O   UNL     1       6.380   1.543   0.000  0.00  0.00    +0.000 OA
ATOM      2  O   UNL     1       4.236   0.306   0.000  0.00  0.00    +0.000 OA
ATOM      3  C   UNL     1       5.665   0.306   0.000  0.00  0.00    +0.000 A 
ATOM      4  C   UNL     1       6.380   0.718   0.000  0.00  0.00    +0.000 A 
ATOM      5  C   UNL     1       4.951   0.718   0.000  0.00  0.00    +0.000 A 
ATOM      6  C   UNL     1       4.951   1.543   0.000  0.00  0.00    +0.000 A 
ATOM      7  C   UNL     1       5.665   1.956   0.000  0.00  0.00    +0.000 A 
ATOM      8  C   UNL     1       4.200   1.961   0.000  0.00  0.00    +0.000 A 
ATOM      9  C   UNL     1       5.679   2.815   0.000  0.00  0.00    +0.000 A 
ATOM     10  C   UNL     1       4.194   2.821   0.000  0.00  0.00    +0.000 A 
ATOM     11  C   UNL     1       4.938   3.250   0.000  0.00  0.00    +0.000 A 
ENDROOT
BRANCH   4  12
ATOM     12  C   UNL     1       7.094   0.306   0.000  0.00  0.00    +0.000 A 
ATOM     13  C   UNL     1       7.094  -0.519   0.000  0.00  0.00    +0.000 A 
ATOM     14  C   UNL     1       7.809   0.718   0.000  0.00  0.00    +0.000 A 
ATOM     15  C   UNL     1       7.809  -0.932   0.000  0.00  0.00    +0.000 A 
ATOM     16  C   UNL     1       8.523   0.306   0.000  0.00  0.00    +0.000 A 
ATOM     17  C   UNL     1       8.523  -0.519   0.000  0.00  0.00    +0.000 A 
ENDBRANCH   4  12
BRANCH   3  18
ATOM     18  O   UNL     1       5.665  -0.519   0.000  0.00  0.00    +0.000 OA
BRANCH  18  26
ATOM     19  O   UNL     1       4.236  -0.519   0.000  0.00  0.00    +0.000 OA
ATOM     20  O   UNL     1       4.236  -2.994   0.000  0.00  0.00    +0.000 OA
ATOM     21  O   UNL     1       5.665  -2.169   0.000  0.00  0.00    +0.000 OA
ATOM     22  O   UNL     1       2.808  -2.169   0.000  0.00  0.00    +0.000 OA
ATOM     23  C   UNL     1       4.236  -2.169   0.000  0.00  0.00    +0.000 C 
ATOM     24  C   UNL     1       4.951  -1.757   0.000  0.00  0.00    +0.000 C 
ATOM     25  C   UNL     1       3.522  -1.757   0.000  0.00  0.00    +0.000 C 
ATOM     26  C   UNL     1       4.951  -0.932   0.000  0.00  0.00    +0.000 C 
ATOM     27  C   UNL     1       3.522  -0.932   0.000  0.00  0.00    +0.000 C 
BRANCH  27  30
ATOM     28  O   UNL     1       2.093  -0.932   0.000  0.00  0.00    +0.000 OA
ATOM     29  O   UNL     1       2.808   0.306   0.000  0.00  0.00    +0.000 OA
ATOM     30  C   UNL     1       2.808  -0.519   0.000  0.00  0.00    +0.000 C 
ENDBRANCH  27  30
ENDBRANCH  18  26
ENDBRANCH   3  18
TORSDOF 4
