REMARK  Name = 44259088
REMARK  4 active torsions:
REMARK  status: ('A' for Active; 'I' for Inactive)
REMARK    1  A    between atoms: O_2  and  C_15
REMARK    2  A    between atoms: O_2  and  C_17
REMARK    3  A    between atoms: O_10  and  C_31
REMARK    4  A    between atoms: C_18  and  C_22
REMARK                            x       y       z     vdW  Elec       q    Type
REMARK                         _______ _______ _______ _____ _____    ______ ____
ROOT
ATOM      1  O   UNL     1       5.665   1.002   0.000  0.00  0.00    +0.000 OA
ATOM      2  O   UNL     1       3.522  -0.236   0.000  0.00  0.00    +0.000 OA
ATOM      3  O   UNL     1       2.776   0.999   0.000  0.00  0.00    +0.000 OA
ATOM      4  O   UNL     1       4.226   3.534   0.000  0.00  0.00    +0.000 OA
ATOM      5  C   UNL     1       4.951  -0.236   0.000  0.00  0.00    +0.000 A 
ATOM      6  C   UNL     1       5.665   0.177   0.000  0.00  0.00    +0.000 A 
ATOM      7  C   UNL     1       4.236   0.177   0.000  0.00  0.00    +0.000 A 
ATOM      8  C   UNL     1       4.236   1.002   0.000  0.00  0.00    +0.000 A 
ATOM      9  C   UNL     1       4.951   1.414   0.000  0.00  0.00    +0.000 A 
ATOM     10  C   UNL     1       3.486   1.420   0.000  0.00  0.00    +0.000 A 
ATOM     11  C   UNL     1       4.964   2.273   0.000  0.00  0.00    +0.000 A 
ATOM     12  C   UNL     1       3.479   2.279   0.000  0.00  0.00    +0.000 A 
ATOM     13  C   UNL     1       4.223   2.709   0.000  0.00  0.00    +0.000 A 
ENDROOT
BRANCH   6  14
ATOM     14  C   UNL     1       6.380  -0.236   0.000  0.00  0.00    +0.000 A 
ATOM     15  C   UNL     1       6.380  -1.061   0.000  0.00  0.00    +0.000 A 
ATOM     16  C   UNL     1       7.094   0.177   0.000  0.00  0.00    +0.000 A 
ATOM     17  C   UNL     1       7.094  -1.473   0.000  0.00  0.00    +0.000 A 
ATOM     18  C   UNL     1       7.809  -0.236   0.000  0.00  0.00    +0.000 A 
ATOM     19  C   UNL     1       7.809  -1.061   0.000  0.00  0.00    +0.000 A 
BRANCH  19  20
ATOM     20  O   UNL     1       8.523  -1.473   0.000  0.00  0.00    +0.000 OA
ATOM     21  C   UNL     1       9.238  -1.061   0.000  0.00  0.00    +0.000 C 
ENDBRANCH  19  20
ENDBRANCH   6  14
BRANCH   5  22
ATOM     22  O   UNL     1       4.951  -1.061   0.000  0.00  0.00    +0.000 OA
BRANCH  22  31
ATOM     23  O   UNL     1       3.522  -1.061   0.000  0.00  0.00    +0.000 OA
ATOM     24  O   UNL     1       3.522  -3.536   0.000  0.00  0.00    +0.000 OA
ATOM     25  O   UNL     1       2.093  -2.711   0.000  0.00  0.00    +0.000 OA
ATOM     26  O   UNL     1       4.951  -2.711   0.000  0.00  0.00    +0.000 OA
ATOM     27  C   UNL     1       3.522  -2.711   0.000  0.00  0.00    +0.000 C 
ATOM     28  C   UNL     1       2.808  -2.298   0.000  0.00  0.00    +0.000 C 
ATOM     29  C   UNL     1       4.236  -2.298   0.000  0.00  0.00    +0.000 C 
ATOM     30  C   UNL     1       2.808  -1.473   0.000  0.00  0.00    +0.000 C 
ATOM     31  C   UNL     1       4.236  -1.473   0.000  0.00  0.00    +0.000 C 
ATOM     32  C   UNL     1       2.093  -1.061   0.000  0.00  0.00    +0.000 C 
ENDBRANCH  22  31
ENDBRANCH   5  22
TORSDOF 4
