REMARK  Name = 44258500
REMARK  6 active torsions:
REMARK  status: ('A' for Active; 'I' for Inactive)
REMARK    1  A    between atoms: O_4  and  C_16
REMARK    2  A    between atoms: O_4  and  C_19
REMARK    3  A    between atoms: O_8  and  C_32
REMARK    4  A    between atoms: O_9  and  C_33
REMARK    5  A    between atoms: C_13  and  C_17
REMARK    6  A    between atoms: C_22  and  C_25
REMARK                            x       y       z     vdW  Elec       q    Type
REMARK                         _______ _______ _______ _____ _____    ______ ____
ROOT
ATOM      1  O   UNL     1       3.522  -1.548   0.000  0.00  0.00    +0.000 OA
ATOM      2  C   UNL     1       4.951  -1.548   0.000  0.00  0.00    +0.000 A 
ATOM      3  C   UNL     1       4.236  -1.135   0.000  0.00  0.00    +0.000 A 
ATOM      4  C   UNL     1       5.665  -1.135   0.000  0.00  0.00    +0.000 A 
ATOM      5  C   UNL     1       4.951   0.102   0.000  0.00  0.00    +0.000 A 
ATOM      6  C   UNL     1       4.236  -0.310   0.000  0.00  0.00    +0.000 A 
ATOM      7  C   UNL     1       5.665  -0.310   0.000  0.00  0.00    +0.000 A 
ENDROOT
BRANCH   5  11
ATOM      8  O   UNL     1       5.693   1.360   0.000  0.00  0.00    +0.000 OA
ATOM      9  O   UNL     1       4.261   3.874   0.000  0.00  0.00    +0.000 OA
ATOM     10  O   UNL     1       3.510   2.642   0.000  0.00  0.00    +0.000 OA
ATOM     11  C   UNL     1       4.951   0.927   0.000  0.00  0.00    +0.000 A 
ATOM     12  C   UNL     1       4.971   2.634   0.000  0.00  0.00    +0.000 A 
ATOM     13  C   UNL     1       5.684   2.219   0.000  0.00  0.00    +0.000 A 
ATOM     14  C   UNL     1       4.208   1.360   0.000  0.00  0.00    +0.000 A 
ATOM     15  C   UNL     1       4.218   2.219   0.000  0.00  0.00    +0.000 A 
ATOM     16  C   UNL     1       4.974   3.459   0.000  0.00  0.00    +0.000 A 
ATOM     17  C   UNL     1       6.399   2.629   0.000  0.00  0.00    +0.000 A 
ATOM     18  C   UNL     1       5.690   3.869   0.000  0.00  0.00    +0.000 A 
ATOM     19  C   UNL     1       6.403   3.454   0.000  0.00  0.00    +0.000 A 
BRANCH  18  20
ATOM     20  O   UNL     1       5.693   4.694   0.000  0.00  0.00    +0.000 OA
ATOM     21  C   UNL     1       6.409   5.104   0.000  0.00  0.00    +0.000 C 
ENDBRANCH  18  20
BRANCH  19  22
ATOM     22  O   UNL     1       7.119   3.863   0.000  0.00  0.00    +0.000 OA
ATOM     23  C   UNL     1       7.832   3.448   0.000  0.00  0.00    +0.000 C 
ENDBRANCH  19  22
ENDBRANCH   5  11
BRANCH   2  24
ATOM     24  O   UNL     1       4.951  -2.373   0.000  0.00  0.00    +0.000 OA
BRANCH  24  33
ATOM     25  O   UNL     1       3.522  -2.373   0.000  0.00  0.00    +0.000 OA
ATOM     26  O   UNL     1       2.093  -4.023   0.000  0.00  0.00    +0.000 OA
ATOM     27  O   UNL     1       3.522  -4.848   0.000  0.00  0.00    +0.000 OA
ATOM     28  O   UNL     1       4.951  -4.023   0.000  0.00  0.00    +0.000 OA
ATOM     29  C   UNL     1       2.808  -3.610   0.000  0.00  0.00    +0.000 C 
ATOM     30  C   UNL     1       2.808  -2.785   0.000  0.00  0.00    +0.000 C 
ATOM     31  C   UNL     1       3.522  -4.023   0.000  0.00  0.00    +0.000 C 
ATOM     32  C   UNL     1       4.236  -3.610   0.000  0.00  0.00    +0.000 C 
ATOM     33  C   UNL     1       4.236  -2.785   0.000  0.00  0.00    +0.000 C 
BRANCH  30  34
ATOM     34  C   UNL     1       2.093  -2.373   0.000  0.00  0.00    +0.000 C 
ATOM     35  C   UNL     1       2.093  -1.548   0.000  0.00  0.00    +0.000 C 
ENDBRANCH  30  34
ENDBRANCH  24  33
ENDBRANCH   2  24
TORSDOF 6
