REMARK  Name = 11192981
REMARK  6 active torsions:
REMARK  status: ('A' for Active; 'I' for Inactive)
REMARK    1  A    between atoms: O_2  and  C_21
REMARK    2  A    between atoms: O_2  and  C_25
REMARK    3  A    between atoms: O_4  and  C_22
REMARK    4  A    between atoms: O_4  and  C_28
REMARK    5  A    between atoms: C_16  and  C_25
REMARK    6  A    between atoms: C_30  and  C_35
REMARK                            x       y       z     vdW  Elec       q    Type
REMARK                         _______ _______ _______ _____ _____    ______ ____
ROOT
ATOM      1  O   UNL     1       5.006   2.681   0.000  0.00  0.00    +0.000 OA
ATOM      2  O   UNL     1       3.586   0.185   0.000  0.00  0.00    +0.000 OA
ATOM      3  O   UNL     1       2.094   2.701   0.000  0.00  0.00    +0.000 OA
ATOM      4  C   UNL     1       5.721   1.444   0.000  0.00  0.00    +0.000 A 
ATOM      5  C   UNL     1       5.006   1.031   0.000  0.00  0.00    +0.000 A 
ATOM      6  C   UNL     1       5.721   2.269   0.000  0.00  0.00    +0.000 A 
ATOM      7  C   UNL     1       4.292   1.444   0.000  0.00  0.00    +0.000 A 
ATOM      8  C   UNL     1       4.292   2.269   0.000  0.00  0.00    +0.000 A 
ATOM      9  C   UNL     1       5.007   0.213   0.000  0.00  0.00    +0.000 A 
ATOM     10  C   UNL     1       3.554   1.003   0.000  0.00  0.00    +0.000 A 
ATOM     11  C   UNL     1       4.304  -0.205   0.000  0.00  0.00    +0.000 A 
ATOM     12  C   UNL     1       3.554   2.710   0.000  0.00  0.00    +0.000 A 
ATOM     13  C   UNL     1       2.807   1.427   0.000  0.00  0.00    +0.000 A 
ATOM     14  C   UNL     1       2.807   2.286   0.000  0.00  0.00    +0.000 A 
ATOM     15  C   UNL     1       4.321  -1.030   0.000  0.00  0.00    +0.000 C 
ENDROOT
BRANCH   6  18
ATOM     16  O   UNL     1       7.150   4.744   0.000  0.00  0.00    +0.000 OA
ATOM     17  O   UNL     1       8.579   3.919   0.000  0.00  0.00    +0.000 OA
ATOM     18  C   UNL     1       6.435   2.681   0.000  0.00  0.00    +0.000 A 
ATOM     19  C   UNL     1       6.435   3.506   0.000  0.00  0.00    +0.000 A 
ATOM     20  C   UNL     1       7.150   2.269   0.000  0.00  0.00    +0.000 A 
ATOM     21  C   UNL     1       7.150   3.919   0.000  0.00  0.00    +0.000 A 
ATOM     22  C   UNL     1       7.864   2.681   0.000  0.00  0.00    +0.000 A 
ATOM     23  C   UNL     1       7.864   3.506   0.000  0.00  0.00    +0.000 A 
ENDBRANCH   6  18
BRANCH   4  24
ATOM     24  O   UNL     1       6.435   1.031   0.000  0.00  0.00    +0.000 OA
BRANCH  24  33
ATOM     25  O   UNL     1       5.721  -0.206   0.000  0.00  0.00    +0.000 OA
ATOM     26  O   UNL     1       6.435  -2.269   0.000  0.00  0.00    +0.000 OA
ATOM     27  O   UNL     1       7.864  -1.444   0.000  0.00  0.00    +0.000 OA
ATOM     28  O   UNL     1       7.864   0.206   0.000  0.00  0.00    +0.000 OA
ATOM     29  C   UNL     1       5.721  -1.031   0.000  0.00  0.00    +0.000 C 
ATOM     30  C   UNL     1       6.435  -1.444   0.000  0.00  0.00    +0.000 C 
ATOM     31  C   UNL     1       7.150  -1.031   0.000  0.00  0.00    +0.000 C 
ATOM     32  C   UNL     1       7.150  -0.206   0.000  0.00  0.00    +0.000 C 
ATOM     33  C   UNL     1       6.435   0.206   0.000  0.00  0.00    +0.000 C 
BRANCH  29  34
ATOM     34  C   UNL     1       5.006  -1.444   0.000  0.00  0.00    +0.000 C 
BRANCH  34  35
ATOM     35  O   UNL     1       5.006  -2.269   0.000  0.00  0.00    +0.000 OA
BRANCH  35  41
ATOM     36  O   UNL     1       3.577  -2.269   0.000  0.00  0.00    +0.000 OA
ATOM     37  O   UNL     1       5.006  -3.919   0.000  0.00  0.00    +0.000 OA
ATOM     38  O   UNL     1       3.577  -4.744   0.000  0.00  0.00    +0.000 OA
ATOM     39  O   UNL     1       2.148  -3.919   0.000  0.00  0.00    +0.000 OA
ATOM     40  C   UNL     1       4.292  -3.506   0.000  0.00  0.00    +0.000 C 
ATOM     41  C   UNL     1       4.292  -2.681   0.000  0.00  0.00    +0.000 C 
ATOM     42  C   UNL     1       3.577  -3.919   0.000  0.00  0.00    +0.000 C 
ATOM     43  C   UNL     1       2.863  -3.506   0.000  0.00  0.00    +0.000 C 
ATOM     44  C   UNL     1       2.863  -2.681   0.000  0.00  0.00    +0.000 C 
ATOM     45  C   UNL     1       2.148  -2.269   0.000  0.00  0.00    +0.000 C 
ENDBRANCH  35  41
ENDBRANCH  34  35
ENDBRANCH  29  34
ENDBRANCH  24  33
ENDBRANCH   4  24
TORSDOF 6
