REMARK  Name = 131838965
REMARK  7 active torsions:
REMARK  status: ('A' for Active; 'I' for Inactive)
REMARK    1  A    between atoms: O_2  and  C_14
REMARK    2  A    between atoms: O_2  and  C_16
REMARK    3  A    between atoms: C_13  and  C_15
REMARK    4  A    between atoms: C_17  and  C_19
REMARK    5  A    between atoms: C_19  and  C_20
REMARK    6  A    between atoms: C_20  and  C_22
REMARK    7  A    between atoms: C_22  and  C_25
REMARK                            x       y       z     vdW  Elec       q    Type
REMARK                         _______ _______ _______ _____ _____    ______ ____
ROOT
ATOM      1  O   UNL     1       5.665   2.809   0.000  0.00  0.00    +0.000 OA
ATOM      2  C   UNL     1       5.665   0.334   0.000  0.00  0.00    +0.000 A 
ATOM      3  C   UNL     1       6.380   0.747   0.000  0.00  0.00    +0.000 A 
ATOM      4  C   UNL     1       4.951   0.747   0.000  0.00  0.00    +0.000 A 
ATOM      5  C   UNL     1       6.380   1.572   0.000  0.00  0.00    +0.000 A 
ATOM      6  C   UNL     1       4.951   1.572   0.000  0.00  0.00    +0.000 A 
ATOM      7  C   UNL     1       5.665   1.984   0.000  0.00  0.00    +0.000 A 
ENDROOT
BRANCH   3   9
ATOM      8  O   UNL     1       7.094  -0.491   0.000  0.00  0.00    +0.000 OA
ATOM      9  C   UNL     1       7.094   0.334   0.000  0.00  0.00    +0.000 C 
BRANCH   9  10
ATOM     10  C   UNL     1       7.809   0.747   0.000  0.00  0.00    +0.000 C 
BRANCH  10  11
ATOM     11  C   UNL     1       7.809   1.572   0.000  0.00  0.00    +0.000 C 
BRANCH  11  12
ATOM     12  C   UNL     1       8.523   1.984   0.000  0.00  0.00    +0.000 A 
ATOM     13  C   UNL     1       9.238   1.572   0.000  0.00  0.00    +0.000 A 
ATOM     14  C   UNL     1       8.523   2.809   0.000  0.00  0.00    +0.000 A 
ATOM     15  C   UNL     1       9.952   1.984   0.000  0.00  0.00    +0.000 A 
ATOM     16  C   UNL     1       9.238   3.222   0.000  0.00  0.00    +0.000 A 
ATOM     17  C   UNL     1       9.952   2.809   0.000  0.00  0.00    +0.000 A 
ENDBRANCH  11  12
ENDBRANCH  10  11
ENDBRANCH   9  10
ENDBRANCH   3   9
BRANCH   2  18
ATOM     18  O   UNL     1       5.665  -0.491   0.000  0.00  0.00    +0.000 OA
BRANCH  18  27
ATOM     19  O   UNL     1       4.236  -0.491   0.000  0.00  0.00    +0.000 OA
ATOM     20  O   UNL     1       4.236  -2.966   0.000  0.00  0.00    +0.000 OA
ATOM     21  O   UNL     1       5.665  -2.141   0.000  0.00  0.00    +0.000 OA
ATOM     22  O   UNL     1       2.808  -2.141   0.000  0.00  0.00    +0.000 OA
ATOM     23  C   UNL     1       4.236  -2.141   0.000  0.00  0.00    +0.000 C 
ATOM     24  C   UNL     1       4.951  -1.728   0.000  0.00  0.00    +0.000 C 
ATOM     25  C   UNL     1       3.522  -1.728   0.000  0.00  0.00    +0.000 C 
ATOM     26  C   UNL     1       3.522  -0.903   0.000  0.00  0.00    +0.000 C 
ATOM     27  C   UNL     1       4.951  -0.903   0.000  0.00  0.00    +0.000 C 
BRANCH  26  30
ATOM     28  O   UNL     1       2.093  -0.903   0.000  0.00  0.00    +0.000 OA
ATOM     29  O   UNL     1       2.808   0.334   0.000  0.00  0.00    +0.000 OA
ATOM     30  C   UNL     1       2.808  -0.491   0.000  0.00  0.00    +0.000 C 
ENDBRANCH  26  30
ENDBRANCH  18  27
ENDBRANCH   2  18
TORSDOF 7
