REMARK  Name = 14159396
REMARK  7 active torsions:
REMARK  status: ('A' for Active; 'I' for Inactive)
REMARK    1  A    between atoms: O_3  and  C_27
REMARK    2  A    between atoms: O_3  and  C_31
REMARK    3  A    between atoms: O_4  and  C_28
REMARK    4  A    between atoms: O_4  and  C_32
REMARK    5  A    between atoms: C_24  and  C_29
REMARK    6  A    between atoms: C_26  and  C_30
REMARK    7  A    between atoms: C_33  and  C_34
REMARK                            x       y       z     vdW  Elec       q    Type
REMARK                         _______ _______ _______ _____ _____    ______ ____
ROOT
ATOM      1  O   UNL     1       6.380   1.002   0.000  0.00  0.00    +0.000 OA
ATOM      2  O   UNL     1       4.236  -0.236   0.000  0.00  0.00    +0.000 OA
ATOM      3  O   UNL     1       3.490   0.999   0.000  0.00  0.00    +0.000 OA
ATOM      4  O   UNL     1       4.941   3.534   0.000  0.00  0.00    +0.000 OA
ATOM      5  C   UNL     1       5.665  -0.236   0.000  0.00  0.00    +0.000 A 
ATOM      6  C   UNL     1       6.380   0.177   0.000  0.00  0.00    +0.000 A 
ATOM      7  C   UNL     1       4.951   0.177   0.000  0.00  0.00    +0.000 A 
ATOM      8  C   UNL     1       4.951   1.002   0.000  0.00  0.00    +0.000 A 
ATOM      9  C   UNL     1       5.665   1.414   0.000  0.00  0.00    +0.000 A 
ATOM     10  C   UNL     1       4.200   1.420   0.000  0.00  0.00    +0.000 A 
ATOM     11  C   UNL     1       5.679   2.273   0.000  0.00  0.00    +0.000 A 
ATOM     12  C   UNL     1       4.194   2.279   0.000  0.00  0.00    +0.000 A 
ATOM     13  C   UNL     1       4.938   2.709   0.000  0.00  0.00    +0.000 A 
ENDROOT
BRANCH   6  17
ATOM     14  O   UNL     1       9.238  -1.473   0.000  0.00  0.00    +0.000 OA
ATOM     15  O   UNL     1       7.809  -2.298   0.000  0.00  0.00    +0.000 OA
ATOM     16  C   UNL     1       8.523  -0.236   0.000  0.00  0.00    +0.000 A 
ATOM     17  C   UNL     1       7.094  -0.236   0.000  0.00  0.00    +0.000 A 
ATOM     18  C   UNL     1       7.809   0.177   0.000  0.00  0.00    +0.000 A 
ATOM     19  C   UNL     1       8.523  -1.061   0.000  0.00  0.00    +0.000 A 
ATOM     20  C   UNL     1       7.094  -1.061   0.000  0.00  0.00    +0.000 A 
ATOM     21  C   UNL     1       7.809  -1.473   0.000  0.00  0.00    +0.000 A 
BRANCH  16  22
ATOM     22  O   UNL     1       9.238   0.177   0.000  0.00  0.00    +0.000 OA
BRANCH  22  31
ATOM     23  O   UNL     1       9.952   1.414   0.000  0.00  0.00    +0.000 OA
ATOM     24  O   UNL     1       7.809   2.652   0.000  0.00  0.00    +0.000 OA
ATOM     25  O   UNL     1       9.238   3.477   0.000  0.00  0.00    +0.000 OA
ATOM     26  O   UNL     1       7.809   1.002   0.000  0.00  0.00    +0.000 OA
ATOM     27  C   UNL     1       8.523   2.239   0.000  0.00  0.00    +0.000 C 
ATOM     28  C   UNL     1       9.238   2.652   0.000  0.00  0.00    +0.000 C 
ATOM     29  C   UNL     1       8.523   1.414   0.000  0.00  0.00    +0.000 C 
ATOM     30  C   UNL     1       9.952   2.239   0.000  0.00  0.00    +0.000 C 
ATOM     31  C   UNL     1       9.238   1.002   0.000  0.00  0.00    +0.000 C 
BRANCH  30  33
ATOM     32  O   UNL     1      11.381   2.239   0.000  0.00  0.00    +0.000 OA
ATOM     33  C   UNL     1      10.667   2.652   0.000  0.00  0.00    +0.000 C 
ENDBRANCH  30  33
ENDBRANCH  22  31
ENDBRANCH  16  22
ENDBRANCH   6  17
BRANCH   5  34
ATOM     34  O   UNL     1       5.665  -1.061   0.000  0.00  0.00    +0.000 OA
BRANCH  34  43
ATOM     35  O   UNL     1       4.236  -1.061   0.000  0.00  0.00    +0.000 OA
ATOM     36  O   UNL     1       4.236  -3.536   0.000  0.00  0.00    +0.000 OA
ATOM     37  O   UNL     1       2.808  -2.711   0.000  0.00  0.00    +0.000 OA
ATOM     38  O   UNL     1       5.665  -2.711   0.000  0.00  0.00    +0.000 OA
ATOM     39  C   UNL     1       4.236  -2.711   0.000  0.00  0.00    +0.000 C 
ATOM     40  C   UNL     1       3.522  -2.298   0.000  0.00  0.00    +0.000 C 
ATOM     41  C   UNL     1       4.951  -2.298   0.000  0.00  0.00    +0.000 C 
ATOM     42  C   UNL     1       3.522  -1.473   0.000  0.00  0.00    +0.000 C 
ATOM     43  C   UNL     1       4.951  -1.473   0.000  0.00  0.00    +0.000 C 
BRANCH  42  45
ATOM     44  O   UNL     1       2.093  -1.473   0.000  0.00  0.00    +0.000 OA
ATOM     45  C   UNL     1       2.808  -1.061   0.000  0.00  0.00    +0.000 C 
ENDBRANCH  42  45
ENDBRANCH  34  43
ENDBRANCH   5  34
TORSDOF 7
