REMARK  Name = 131752462
REMARK  16 active torsions:
REMARK  status: ('A' for Active; 'I' for Inactive)
REMARK    1  A    between atoms: O_1  and  C_26
REMARK    2  A    between atoms: O_1  and  C_29
REMARK    3  A    between atoms: O_4  and  C_31
REMARK    4  A    between atoms: O_4  and  C_43
REMARK    5  A    between atoms: O_13  and  C_42
REMARK    6  A    between atoms: O_13  and  C_47
REMARK    7  A    between atoms: O_14  and  C_40
REMARK    8  A    between atoms: O_14  and  C_53
REMARK    9  A    between atoms: O_23  and  C_65
REMARK   10  A    between atoms: O_24  and  C_66
REMARK   11  A    between atoms: C_32  and  C_36
REMARK   12  A    between atoms: C_35  and  C_37
REMARK   13  A    between atoms: C_41  and  C_44
REMARK   14  A    between atoms: C_52  and  C_54
REMARK   15  A    between atoms: C_53  and  C_55
REMARK   16  A    between atoms: C_58  and  C_62
REMARK                            x       y       z     vdW  Elec       q    Type
REMARK                         _______ _______ _______ _____ _____    ______ ____
ROOT
ATOM      1  O   UNL     1       7.114  -1.701   0.000  0.00  0.00    +0.000 OA
ATOM      2  O   UNL     1       4.225  -1.688   0.000  0.00  0.00    +0.000 OA
ATOM      3  O   UNL     1       4.975  -0.455   0.000  0.00  0.00    +0.000 OA
ATOM      4  C   UNL     1       5.665  -3.403   0.000  0.00  0.00    +0.000 A 
ATOM      5  C   UNL     1       6.408  -2.970   0.000  0.00  0.00    +0.000 A 
ATOM      6  C   UNL     1       4.923  -2.970   0.000  0.00  0.00    +0.000 A 
ATOM      7  C   UNL     1       6.404  -0.461   0.000  0.00  0.00    +0.000 A 
ATOM      8  C   UNL     1       6.398  -2.111   0.000  0.00  0.00    +0.000 A 
ATOM      9  C   UNL     1       5.685  -1.696   0.000  0.00  0.00    +0.000 A 
ATOM     10  C   UNL     1       4.933  -2.111   0.000  0.00  0.00    +0.000 A 
ATOM     11  C   UNL     1       5.688  -0.871   0.000  0.00  0.00    +0.000 A 
ATOM     12  C   UNL     1       7.117  -0.876   0.000  0.00  0.00    +0.000 A 
ENDROOT
BRANCH  12  14
ATOM     13  O   UNL     1       9.981   0.763   0.000  0.00  0.00    +0.000 OA
ATOM     14  C   UNL     1       7.833  -0.467   0.000  0.00  0.00    +0.000 A 
ATOM     15  C   UNL     1       7.836   0.358   0.000  0.00  0.00    +0.000 A 
ATOM     16  C   UNL     1       8.546  -0.882   0.000  0.00  0.00    +0.000 A 
ATOM     17  C   UNL     1       8.552   0.768   0.000  0.00  0.00    +0.000 A 
ATOM     18  C   UNL     1       9.262  -0.472   0.000  0.00  0.00    +0.000 A 
ATOM     19  C   UNL     1       9.265   0.353   0.000  0.00  0.00    +0.000 A 
ENDBRANCH  12  14
BRANCH   7  20
ATOM     20  O   UNL     1       6.407   0.364   0.000  0.00  0.00    +0.000 OA
BRANCH  20  28
ATOM     21  O   UNL     1       4.979   0.370   0.000  0.00  0.00    +0.000 OA
ATOM     22  O   UNL     1       4.988   2.845   0.000  0.00  0.00    +0.000 OA
ATOM     23  O   UNL     1       3.556   2.025   0.000  0.00  0.00    +0.000 OA
ATOM     24  C   UNL     1       4.985   2.019   0.000  0.00  0.00    +0.000 C 
ATOM     25  C   UNL     1       4.269   1.610   0.000  0.00  0.00    +0.000 C 
ATOM     26  C   UNL     1       5.698   1.604   0.000  0.00  0.00    +0.000 C 
ATOM     27  C   UNL     1       4.266   0.785   0.000  0.00  0.00    +0.000 C 
ATOM     28  C   UNL     1       5.695   0.779   0.000  0.00  0.00    +0.000 C 
BRANCH  27  30
ATOM     29  O   UNL     1       3.546  -0.450   0.000  0.00  0.00    +0.000 OA
ATOM     30  C   UNL     1       3.550   0.375   0.000  0.00  0.00    +0.000 C 
ENDBRANCH  27  30
BRANCH  26  31
ATOM     31  O   UNL     1       6.414   2.014   0.000  0.00  0.00    +0.000 OA
BRANCH  31  33
ATOM     32  O   UNL     1       5.704   3.254   0.000  0.00  0.00    +0.000 OA
ATOM     33  C   UNL     1       6.417   2.839   0.000  0.00  0.00    +0.000 C 
BRANCH  33  34
ATOM     34  C   UNL     1       7.133   3.249   0.000  0.00  0.00    +0.000 C 
ATOM     35  C   UNL     1       7.136   4.074   0.000  0.00  0.00    +0.000 C 
BRANCH  35  37
ATOM     36  O   UNL     1      10.001   5.713   0.000  0.00  0.00    +0.000 OA
ATOM     37  C   UNL     1       7.852   4.484   0.000  0.00  0.00    +0.000 A 
ATOM     38  C   UNL     1       7.856   5.309   0.000  0.00  0.00    +0.000 A 
ATOM     39  C   UNL     1       8.565   4.068   0.000  0.00  0.00    +0.000 A 
ATOM     40  C   UNL     1       9.281   4.478   0.000  0.00  0.00    +0.000 A 
ATOM     41  C   UNL     1       8.572   5.718   0.000  0.00  0.00    +0.000 A 
ATOM     42  C   UNL     1       9.284   5.303   0.000  0.00  0.00    +0.000 A 
BRANCH  41  43
ATOM     43  O   UNL     1       8.575   6.543   0.000  0.00  0.00    +0.000 OA
ATOM     44  C   UNL     1       7.862   6.958   0.000  0.00  0.00    +0.000 C 
ENDBRANCH  41  43
BRANCH  40  45
ATOM     45  O   UNL     1       9.994   4.063   0.000  0.00  0.00    +0.000 OA
ATOM     46  C   UNL     1      10.710   4.473   0.000  0.00  0.00    +0.000 C 
ENDBRANCH  40  45
ENDBRANCH  35  37
ENDBRANCH  33  34
ENDBRANCH  31  33
ENDBRANCH  26  31
ENDBRANCH  20  28
ENDBRANCH   7  20
BRANCH   4  47
ATOM     47  O   UNL     1       5.665  -4.228   0.000  0.00  0.00    +0.000 OA
BRANCH  47  54
ATOM     48  O   UNL     1       4.236  -4.228   0.000  0.00  0.00    +0.000 OA
ATOM     49  O   UNL     1       4.236  -6.703   0.000  0.00  0.00    +0.000 OA
ATOM     50  O   UNL     1       2.808  -5.878   0.000  0.00  0.00    +0.000 OA
ATOM     51  C   UNL     1       4.951  -5.465   0.000  0.00  0.00    +0.000 C 
ATOM     52  C   UNL     1       4.236  -5.878   0.000  0.00  0.00    +0.000 C 
ATOM     53  C   UNL     1       3.522  -5.465   0.000  0.00  0.00    +0.000 C 
ATOM     54  C   UNL     1       4.951  -4.640   0.000  0.00  0.00    +0.000 C 
ATOM     55  C   UNL     1       3.522  -4.640   0.000  0.00  0.00    +0.000 C 
BRANCH  55  57
ATOM     56  O   UNL     1       2.093  -4.640   0.000  0.00  0.00    +0.000 OA
ATOM     57  C   UNL     1       2.808  -4.228   0.000  0.00  0.00    +0.000 C 
ENDBRANCH  55  57
BRANCH  51  58
ATOM     58  O   UNL     1       5.665  -5.878   0.000  0.00  0.00    +0.000 OA
BRANCH  58  63
ATOM     59  O   UNL     1       6.380  -4.640   0.000  0.00  0.00    +0.000 OA
ATOM     60  O   UNL     1       7.094  -6.703   0.000  0.00  0.00    +0.000 OA
ATOM     61  O   UNL     1       8.523  -5.878   0.000  0.00  0.00    +0.000 OA
ATOM     62  O   UNL     1       8.523  -4.228   0.000  0.00  0.00    +0.000 OA
ATOM     63  C   UNL     1       6.380  -5.465   0.000  0.00  0.00    +0.000 C 
ATOM     64  C   UNL     1       7.094  -5.878   0.000  0.00  0.00    +0.000 C 
ATOM     65  C   UNL     1       7.809  -5.465   0.000  0.00  0.00    +0.000 C 
ATOM     66  C   UNL     1       7.809  -4.640   0.000  0.00  0.00    +0.000 C 
ATOM     67  C   UNL     1       7.094  -4.228   0.000  0.00  0.00    +0.000 C 
BRANCH  67  69
ATOM     68  O   UNL     1       7.809  -2.990   0.000  0.00  0.00    +0.000 OA
ATOM     69  C   UNL     1       7.094  -3.403   0.000  0.00  0.00    +0.000 C 
ENDBRANCH  67  69
ENDBRANCH  58  63
ENDBRANCH  51  58
ENDBRANCH  47  54
ENDBRANCH   4  47
TORSDOF 16
