REMARK  Name = 44258787
REMARK  9 active torsions:
REMARK  status: ('A' for Active; 'I' for Inactive)
REMARK    1  A    between atoms: O_3  and  C_25
REMARK    2  A    between atoms: O_3  and  C_29
REMARK    3  A    between atoms: O_4  and  C_26
REMARK    4  A    between atoms: O_4  and  C_30
REMARK    5  A    between atoms: C_23  and  C_27
REMARK    6  A    between atoms: C_24  and  C_28
REMARK    7  A    between atoms: C_31  and  C_38
REMARK    8  A    between atoms: C_35  and  C_39
REMARK    9  A    between atoms: C_38  and  C_40
REMARK                            x       y       z     vdW  Elec       q    Type
REMARK                         _______ _______ _______ _____ _____    ______ ____
ROOT
ATOM      1  O   UNL     1       7.104  -0.238   0.000  0.00  0.00    +0.000 OA
ATOM      2  O   UNL     1       4.214  -0.241   0.000  0.00  0.00    +0.000 OA
ATOM      3  O   UNL     1       4.960  -1.476   0.000  0.00  0.00    +0.000 OA
ATOM      4  C   UNL     1       5.662   1.469   0.000  0.00  0.00    +0.000 A 
ATOM      5  C   UNL     1       6.389  -1.476   0.000  0.00  0.00    +0.000 A 
ATOM      6  C   UNL     1       6.402   1.033   0.000  0.00  0.00    +0.000 A 
ATOM      7  C   UNL     1       6.389   0.174   0.000  0.00  0.00    +0.000 A 
ATOM      8  C   UNL     1       5.675  -0.238   0.000  0.00  0.00    +0.000 A 
ATOM      9  C   UNL     1       5.675  -1.063   0.000  0.00  0.00    +0.000 A 
ATOM     10  C   UNL     1       7.104  -1.063   0.000  0.00  0.00    +0.000 A 
ATOM     11  C   UNL     1       4.917   1.039   0.000  0.00  0.00    +0.000 A 
ATOM     12  C   UNL     1       4.924   0.180   0.000  0.00  0.00    +0.000 A 
ENDROOT
BRANCH  10  14
ATOM     13  O   UNL     1       9.961  -2.713   0.000  0.00  0.00    +0.000 OA
ATOM     14  C   UNL     1       7.818  -1.476   0.000  0.00  0.00    +0.000 A 
ATOM     15  C   UNL     1       7.818  -2.301   0.000  0.00  0.00    +0.000 A 
ATOM     16  C   UNL     1       8.533  -1.063   0.000  0.00  0.00    +0.000 A 
ATOM     17  C   UNL     1       8.533  -2.713   0.000  0.00  0.00    +0.000 A 
ATOM     18  C   UNL     1       9.247  -1.476   0.000  0.00  0.00    +0.000 A 
ATOM     19  C   UNL     1       9.247  -2.301   0.000  0.00  0.00    +0.000 A 
ENDBRANCH  10  14
BRANCH   4  20
ATOM     20  O   UNL     1       5.665   2.294   0.000  0.00  0.00    +0.000 OA
BRANCH  20  29
ATOM     21  O   UNL     1       4.236   2.299   0.000  0.00  0.00    +0.000 OA
ATOM     22  O   UNL     1       4.245   4.774   0.000  0.00  0.00    +0.000 OA
ATOM     23  O   UNL     1       2.813   3.955   0.000  0.00  0.00    +0.000 OA
ATOM     24  O   UNL     1       5.671   3.944   0.000  0.00  0.00    +0.000 OA
ATOM     25  C   UNL     1       4.242   3.949   0.000  0.00  0.00    +0.000 C 
ATOM     26  C   UNL     1       3.526   3.539   0.000  0.00  0.00    +0.000 C 
ATOM     27  C   UNL     1       4.955   3.534   0.000  0.00  0.00    +0.000 C 
ATOM     28  C   UNL     1       3.523   2.715   0.000  0.00  0.00    +0.000 C 
ATOM     29  C   UNL     1       4.952   2.709   0.000  0.00  0.00    +0.000 C 
BRANCH  28  31
ATOM     30  O   UNL     1       2.094   2.720   0.000  0.00  0.00    +0.000 OA
ATOM     31  C   UNL     1       2.807   2.305   0.000  0.00  0.00    +0.000 C 
ENDBRANCH  28  31
ENDBRANCH  20  29
ENDBRANCH   4  20
BRANCH   5  32
ATOM     32  O   UNL     1       6.389  -2.301   0.000  0.00  0.00    +0.000 OA
BRANCH  32  41
ATOM     33  O   UNL     1       4.960  -2.301   0.000  0.00  0.00    +0.000 OA
ATOM     34  O   UNL     1       4.960  -4.776   0.000  0.00  0.00    +0.000 OA
ATOM     35  O   UNL     1       3.531  -3.951   0.000  0.00  0.00    +0.000 OA
ATOM     36  O   UNL     1       6.389  -3.951   0.000  0.00  0.00    +0.000 OA
ATOM     37  C   UNL     1       4.960  -3.951   0.000  0.00  0.00    +0.000 C 
ATOM     38  C   UNL     1       4.246  -3.538   0.000  0.00  0.00    +0.000 C 
ATOM     39  C   UNL     1       5.675  -3.538   0.000  0.00  0.00    +0.000 C 
ATOM     40  C   UNL     1       4.246  -2.713   0.000  0.00  0.00    +0.000 C 
ATOM     41  C   UNL     1       5.675  -2.713   0.000  0.00  0.00    +0.000 C 
BRANCH  40  43
ATOM     42  O   UNL     1       2.817  -2.713   0.000  0.00  0.00    +0.000 OA
ATOM     43  C   UNL     1       3.531  -2.301   0.000  0.00  0.00    +0.000 C 
ENDBRANCH  40  43
ENDBRANCH  32  41
ENDBRANCH   5  32
BRANCH   6  44
ATOM     44  C   UNL     1       7.122   1.438   0.000  0.00  0.00    +0.000 C 
BRANCH  44  45
ATOM     45  C   UNL     1       7.131   2.263   0.000  0.00  0.00    +0.000 C 
ATOM     46  C   UNL     1       7.850   2.667   0.000  0.00  0.00    +0.000 C 
ATOM     47  C   UNL     1       7.860   3.492   0.000  0.00  0.00    +0.000 C 
ATOM     48  C   UNL     1       8.560   2.246   0.000  0.00  0.00    +0.000 C 
ENDBRANCH  44  45
ENDBRANCH   6  44
TORSDOF 9
