REMARK  Name = 44257830
REMARK  6 active torsions:
REMARK  status: ('A' for Active; 'I' for Inactive)
REMARK    1  A    between atoms: O_2  and  C_14
REMARK    2  A    between atoms: O_2  and  C_19
REMARK    3  A    between atoms: O_3  and  C_16
REMARK    4  A    between atoms: O_3  and  C_18
REMARK    5  A    between atoms: C_15  and  C_17
REMARK    6  A    between atoms: C_27  and  C_29
REMARK                            x       y       z     vdW  Elec       q    Type
REMARK                         _______ _______ _______ _____ _____    ______ ____
ROOT
ATOM      1  O   UNL     1       7.114   1.219   0.000  0.00  0.00    +0.000 OA
ATOM      2  O   UNL     1       4.225   1.233   0.000  0.00  0.00    +0.000 OA
ATOM      3  O   UNL     1       4.975   2.465   0.000  0.00  0.00    +0.000 OA
ATOM      4  C   UNL     1       5.665  -0.482   0.000  0.00  0.00    +0.000 A 
ATOM      5  C   UNL     1       6.408  -0.050   0.000  0.00  0.00    +0.000 A 
ATOM      6  C   UNL     1       4.923  -0.050   0.000  0.00  0.00    +0.000 A 
ATOM      7  C   UNL     1       6.398   0.810   0.000  0.00  0.00    +0.000 A 
ATOM      8  C   UNL     1       5.685   1.225   0.000  0.00  0.00    +0.000 A 
ATOM      9  C   UNL     1       4.933   0.810   0.000  0.00  0.00    +0.000 A 
ATOM     10  C   UNL     1       5.688   2.050   0.000  0.00  0.00    +0.000 A 
ATOM     11  C   UNL     1       7.117   2.044   0.000  0.00  0.00    +0.000 A 
ATOM     12  C   UNL     1       6.404   2.460   0.000  0.00  0.00    +0.000 A 
ENDROOT
BRANCH  11  14
ATOM     13  O   UNL     1       9.981   3.683   0.000  0.00  0.00    +0.000 OA
ATOM     14  C   UNL     1       7.833   2.454   0.000  0.00  0.00    +0.000 A 
ATOM     15  C   UNL     1       7.836   3.279   0.000  0.00  0.00    +0.000 A 
ATOM     16  C   UNL     1       8.546   2.039   0.000  0.00  0.00    +0.000 A 
ATOM     17  C   UNL     1       8.552   3.689   0.000  0.00  0.00    +0.000 A 
ATOM     18  C   UNL     1       9.262   2.449   0.000  0.00  0.00    +0.000 A 
ATOM     19  C   UNL     1       9.265   3.273   0.000  0.00  0.00    +0.000 A 
ENDBRANCH  11  14
BRANCH   4  20
ATOM     20  O   UNL     1       5.665  -1.307   0.000  0.00  0.00    +0.000 OA
BRANCH  20  28
ATOM     21  O   UNL     1       4.236  -1.307   0.000  0.00  0.00    +0.000 OA
ATOM     22  O   UNL     1       4.236  -3.782   0.000  0.00  0.00    +0.000 OA
ATOM     23  O   UNL     1       2.808  -2.957   0.000  0.00  0.00    +0.000 OA
ATOM     24  C   UNL     1       4.236  -2.957   0.000  0.00  0.00    +0.000 C 
ATOM     25  C   UNL     1       3.522  -2.545   0.000  0.00  0.00    +0.000 C 
ATOM     26  C   UNL     1       4.951  -2.545   0.000  0.00  0.00    +0.000 C 
ATOM     27  C   UNL     1       3.522  -1.720   0.000  0.00  0.00    +0.000 C 
ATOM     28  C   UNL     1       4.951  -1.720   0.000  0.00  0.00    +0.000 C 
BRANCH  27  30
ATOM     29  O   UNL     1       2.093  -1.720   0.000  0.00  0.00    +0.000 OA
ATOM     30  C   UNL     1       2.808  -1.307   0.000  0.00  0.00    +0.000 C 
ENDBRANCH  27  30
BRANCH  26  31
ATOM     31  O   UNL     1       5.665  -2.957   0.000  0.00  0.00    +0.000 OA
BRANCH  31  33
ATOM     32  O   UNL     1       4.951  -4.195   0.000  0.00  0.00    +0.000 OA
ATOM     33  C   UNL     1       5.665  -3.782   0.000  0.00  0.00    +0.000 C 
ATOM     34  C   UNL     1       6.380  -4.195   0.000  0.00  0.00    +0.000 C 
ENDBRANCH  31  33
ENDBRANCH  26  31
ENDBRANCH  20  28
ENDBRANCH   4  20
TORSDOF 6
