REMARK  Name = 44258390
REMARK  8 active torsions:
REMARK  status: ('A' for Active; 'I' for Inactive)
REMARK    1  A    between atoms: O_1  and  C_16
REMARK    2  A    between atoms: O_1  and  C_21
REMARK    3  A    between atoms: O_10  and  C_30
REMARK    4  A    between atoms: O_14  and  C_41
REMARK    5  A    between atoms: O_15  and  C_43
REMARK    6  A    between atoms: C_18  and  C_26
REMARK    7  A    between atoms: C_20  and  C_27
REMARK    8  A    between atoms: C_36  and  C_38
REMARK                            x       y       z     vdW  Elec       q    Type
REMARK                         _______ _______ _______ _____ _____    ______ ____
ROOT
ATOM      1  O   UNL     1       7.094   1.316   0.000  0.00  0.00    +0.000 OA
ATOM      2  O   UNL     1       8.546  -1.188   0.000  0.00  0.00    +0.000 OA
ATOM      3  O   UNL     1       8.537   1.344   0.000  0.00  0.00    +0.000 OA
ATOM      4  C   UNL     1       6.380   0.078   0.000  0.00  0.00    +0.000 A 
ATOM      5  C   UNL     1       7.094   0.491   0.000  0.00  0.00    +0.000 A 
ATOM      6  C   UNL     1       6.380  -0.747   0.000  0.00  0.00    +0.000 A 
ATOM      7  C   UNL     1       7.809   0.078   0.000  0.00  0.00    +0.000 A 
ATOM      8  C   UNL     1       7.094  -1.159   0.000  0.00  0.00    +0.000 A 
ATOM      9  C   UNL     1       7.809  -0.747   0.000  0.00  0.00    +0.000 A 
ATOM     10  C   UNL     1       8.546   0.519   0.000  0.00  0.00    +0.000 A 
ATOM     11  C   UNL     1       9.294   0.096   0.000  0.00  0.00    +0.000 A 
ATOM     12  C   UNL     1       9.294  -0.764   0.000  0.00  0.00    +0.000 A 
ENDROOT
BRANCH   4  18
ATOM     13  O   UNL     1       5.665   1.316   0.000  0.00  0.00    +0.000 OA
ATOM     14  O   UNL     1       3.522   0.078   0.000  0.00  0.00    +0.000 OA
ATOM     15  O   UNL     1       3.522   1.728   0.000  0.00  0.00    +0.000 OA
ATOM     16  C   UNL     1       4.951   0.078   0.000  0.00  0.00    +0.000 C 
ATOM     17  C   UNL     1       4.236   0.491   0.000  0.00  0.00    +0.000 C 
ATOM     18  C   UNL     1       5.665   0.491   0.000  0.00  0.00    +0.000 C 
ATOM     19  C   UNL     1       4.236   1.316   0.000  0.00  0.00    +0.000 C 
ATOM     20  C   UNL     1       4.951   1.728   0.000  0.00  0.00    +0.000 C 
BRANCH  20  22
ATOM     21  O   UNL     1       4.236   2.966   0.000  0.00  0.00    +0.000 OA
ATOM     22  C   UNL     1       4.951   2.553   0.000  0.00  0.00    +0.000 C 
ENDBRANCH  20  22
BRANCH  16  23
ATOM     23  O   UNL     1       4.951  -0.747   0.000  0.00  0.00    +0.000 OA
BRANCH  23  28
ATOM     24  O   UNL     1       3.522  -0.747   0.000  0.00  0.00    +0.000 OA
ATOM     25  O   UNL     1       4.951  -2.397   0.000  0.00  0.00    +0.000 OA
ATOM     26  O   UNL     1       3.522  -3.222   0.000  0.00  0.00    +0.000 OA
ATOM     27  O   UNL     1       2.093  -2.397   0.000  0.00  0.00    +0.000 OA
ATOM     28  C   UNL     1       4.236  -1.159   0.000  0.00  0.00    +0.000 C 
ATOM     29  C   UNL     1       4.236  -1.984   0.000  0.00  0.00    +0.000 C 
ATOM     30  C   UNL     1       3.522  -2.397   0.000  0.00  0.00    +0.000 C 
ATOM     31  C   UNL     1       2.808  -1.984   0.000  0.00  0.00    +0.000 C 
ATOM     32  C   UNL     1       2.808  -1.159   0.000  0.00  0.00    +0.000 C 
ATOM     33  C   UNL     1       2.093  -0.747   0.000  0.00  0.00    +0.000 C 
ENDBRANCH  23  28
ENDBRANCH  16  23
ENDBRANCH   4  18
BRANCH  12  34
ATOM     34  C   UNL     1      10.007  -1.179   0.000  0.00  0.00    +0.000 A 
ATOM     35  C   UNL     1      10.723  -0.769   0.000  0.00  0.00    +0.000 A 
ATOM     36  C   UNL     1      10.004  -2.004   0.000  0.00  0.00    +0.000 A 
ATOM     37  C   UNL     1      11.436  -1.185   0.000  0.00  0.00    +0.000 A 
ATOM     38  C   UNL     1      10.716  -2.419   0.000  0.00  0.00    +0.000 A 
ATOM     39  C   UNL     1      11.432  -2.010   0.000  0.00  0.00    +0.000 A 
BRANCH  37  40
ATOM     40  O   UNL     1      12.152  -0.775   0.000  0.00  0.00    +0.000 OA
ATOM     41  C   UNL     1      12.864  -1.190   0.000  0.00  0.00    +0.000 C 
ENDBRANCH  37  40
BRANCH  39  42
ATOM     42  O   UNL     1      12.145  -2.425   0.000  0.00  0.00    +0.000 OA
ATOM     43  C   UNL     1      12.142  -3.250   0.000  0.00  0.00    +0.000 C 
ENDBRANCH  39  42
ENDBRANCH  12  34
BRANCH   6  44
ATOM     44  O   UNL     1       5.665  -1.159   0.000  0.00  0.00    +0.000 OA
ATOM     45  C   UNL     1       5.665  -1.984   0.000  0.00  0.00    +0.000 C 
ENDBRANCH   6  44
TORSDOF 8
