REMARK  Name = 44259543
REMARK  12 active torsions:
REMARK  status: ('A' for Active; 'I' for Inactive)
REMARK    1  A    between atoms: O_1  and  C_20
REMARK    2  A    between atoms: O_1  and  C_25
REMARK    3  A    between atoms: O_4  and  C_27
REMARK    4  A    between atoms: O_4  and  C_33
REMARK    5  A    between atoms: O_8  and  C_24
REMARK    6  A    between atoms: O_8  and  C_37
REMARK    7  A    between atoms: O_18  and  C_45
REMARK    8  A    between atoms: C_22  and  C_27
REMARK    9  A    between atoms: C_30  and  C_35
REMARK   10  A    between atoms: C_38  and  C_42
REMARK   11  A    between atoms: C_43  and  C_49
REMARK   12  A    between atoms: C_49  and  C_52
REMARK                            x       y       z     vdW  Elec       q    Type
REMARK                         _______ _______ _______ _____ _____    ______ ____
ROOT
ATOM      1  O   UNL     1       6.257  -0.293   0.000  0.00  0.00    +0.000 OA
ATOM      2  O   UNL     1       4.828  -1.943   0.000  0.00  0.00    +0.000 OA
ATOM      3  O   UNL     1       7.686  -1.943   0.000  0.00  0.00    +0.000 OA
ATOM      4  C   UNL     1       6.257  -1.943   0.000  0.00  0.00    +0.000 C 
ATOM      5  C   UNL     1       5.542  -1.531   0.000  0.00  0.00    +0.000 C 
ATOM      6  C   UNL     1       5.542  -0.706   0.000  0.00  0.00    +0.000 C 
ATOM      7  C   UNL     1       6.971  -1.531   0.000  0.00  0.00    +0.000 C 
ATOM      8  C   UNL     1       6.971  -0.706   0.000  0.00  0.00    +0.000 C 
ENDROOT
BRANCH   4   9
ATOM      9  O   UNL     1       6.257  -2.768   0.000  0.00  0.00    +0.000 OA
BRANCH   9  14
ATOM     10  O   UNL     1       4.828  -2.768   0.000  0.00  0.00    +0.000 OA
ATOM     11  O   UNL     1       6.257  -4.418   0.000  0.00  0.00    +0.000 OA
ATOM     12  O   UNL     1       4.828  -5.243   0.000  0.00  0.00    +0.000 OA
ATOM     13  O   UNL     1       3.399  -4.418   0.000  0.00  0.00    +0.000 OA
ATOM     14  C   UNL     1       5.542  -3.181   0.000  0.00  0.00    +0.000 C 
ATOM     15  C   UNL     1       5.542  -4.006   0.000  0.00  0.00    +0.000 C 
ATOM     16  C   UNL     1       4.828  -4.418   0.000  0.00  0.00    +0.000 C 
ATOM     17  C   UNL     1       4.113  -4.006   0.000  0.00  0.00    +0.000 C 
ATOM     18  C   UNL     1       4.113  -3.181   0.000  0.00  0.00    +0.000 C 
ATOM     19  C   UNL     1       3.399  -2.768   0.000  0.00  0.00    +0.000 C 
ENDBRANCH   9  14
ENDBRANCH   4   9
BRANCH   8  20
ATOM     20  O   UNL     1       7.686  -0.293   0.000  0.00  0.00    +0.000 OA
BRANCH  20  24
ATOM     21  O   UNL     1       8.400   1.769   0.000  0.00  0.00    +0.000 OA
ATOM     22  O   UNL     1       6.257   0.532   0.000  0.00  0.00    +0.000 OA
ATOM     23  O   UNL     1       5.511   1.766   0.000  0.00  0.00    +0.000 OA
ATOM     24  C   UNL     1       7.686   0.532   0.000  0.00  0.00    +0.000 A 
ATOM     25  C   UNL     1       8.400   0.944   0.000  0.00  0.00    +0.000 A 
ATOM     26  C   UNL     1       6.971   0.944   0.000  0.00  0.00    +0.000 A 
ATOM     27  C   UNL     1       6.971   1.769   0.000  0.00  0.00    +0.000 A 
ATOM     28  C   UNL     1       7.686   2.182   0.000  0.00  0.00    +0.000 A 
ATOM     29  C   UNL     1       7.699   3.041   0.000  0.00  0.00    +0.000 A 
ATOM     30  C   UNL     1       6.220   2.187   0.000  0.00  0.00    +0.000 A 
ATOM     31  C   UNL     1       6.958   3.476   0.000  0.00  0.00    +0.000 A 
ATOM     32  C   UNL     1       6.214   3.047   0.000  0.00  0.00    +0.000 A 
BRANCH  25  34
ATOM     33  O   UNL     1      11.258  -0.706   0.000  0.00  0.00    +0.000 OA
ATOM     34  C   UNL     1       9.114   0.532   0.000  0.00  0.00    +0.000 A 
ATOM     35  C   UNL     1       9.114  -0.293   0.000  0.00  0.00    +0.000 A 
ATOM     36  C   UNL     1       9.829   0.944   0.000  0.00  0.00    +0.000 A 
ATOM     37  C   UNL     1       9.829  -0.706   0.000  0.00  0.00    +0.000 A 
ATOM     38  C   UNL     1      10.543   0.532   0.000  0.00  0.00    +0.000 A 
ATOM     39  C   UNL     1      10.543  -0.293   0.000  0.00  0.00    +0.000 A 
ENDBRANCH  25  34
BRANCH  31  40
ATOM     40  O   UNL     1       6.961   4.301   0.000  0.00  0.00    +0.000 OA
ATOM     41  C   UNL     1       6.248   4.716   0.000  0.00  0.00    +0.000 C 
ENDBRANCH  31  40
BRANCH  29  42
ATOM     42  C   UNL     1       8.418   3.445   0.000  0.00  0.00    +0.000 C 
BRANCH  42  43
ATOM     43  C   UNL     1       8.428   4.270   0.000  0.00  0.00    +0.000 C 
ATOM     44  C   UNL     1       9.147   4.674   0.000  0.00  0.00    +0.000 C 
ATOM     45  C   UNL     1       9.156   5.499   0.000  0.00  0.00    +0.000 C 
ATOM     46  C   UNL     1       9.856   4.253   0.000  0.00  0.00    +0.000 C 
ENDBRANCH  42  43
ENDBRANCH  29  42
ENDBRANCH  20  24
ENDBRANCH   8  20
BRANCH   6  47
ATOM     47  C   UNL     1       4.828  -0.293   0.000  0.00  0.00    +0.000 C 
BRANCH  47  48
ATOM     48  O   UNL     1       4.828   0.532   0.000  0.00  0.00    +0.000 OA
BRANCH  48  54
ATOM     49  O   UNL     1       4.027   1.765   0.000  0.00  0.00    +0.000 OA
ATOM     50  O   UNL     1       2.194   0.670   0.000  0.00  0.00    +0.000 OA
ATOM     51  O   UNL     1       3.188  -0.198   0.000  0.00  0.00    +0.000 OA
ATOM     52  C   UNL     1       2.808   1.222   0.000  0.00  0.00    +0.000 C 
ATOM     53  C   UNL     1       3.360   0.609   0.000  0.00  0.00    +0.000 C 
ATOM     54  C   UNL     1       4.113   0.944   0.000  0.00  0.00    +0.000 C 
ATOM     55  C   UNL     1       3.220   1.936   0.000  0.00  0.00    +0.000 C 
BRANCH  52  57
ATOM     56  O   UNL     1       2.093   2.459   0.000  0.00  0.00    +0.000 OA
ATOM     57  C   UNL     1       2.093   1.634   0.000  0.00  0.00    +0.000 C 
ENDBRANCH  52  57
ENDBRANCH  48  54
ENDBRANCH  47  48
ENDBRANCH   6  47
TORSDOF 12
