REMARK  Name = 42607951
REMARK  7 active torsions:
REMARK  status: ('A' for Active; 'I' for Inactive)
REMARK    1  A    between atoms: O_1  and  C_15
REMARK    2  A    between atoms: O_1  and  C_18
REMARK    3  A    between atoms: O_6  and  C_24
REMARK    4  A    between atoms: O_6  and  C_27
REMARK    5  A    between atoms: O_14  and  C_41
REMARK    6  A    between atoms: C_23  and  C_26
REMARK    7  A    between atoms: C_32  and  C_36
REMARK                            x       y       z     vdW  Elec       q    Type
REMARK                         _______ _______ _______ _____ _____    ______ ____
ROOT
ATOM      1  O   UNL     1       5.665  -0.309   0.000  0.00  0.00    +0.000 OA
ENDROOT
BRANCH   1   5
ATOM      2  O   UNL     1       4.202   2.209   0.000  0.00  0.00    +0.000 OA
ATOM      3  O   UNL     1       2.745  -0.286   0.000  0.00  0.00    +0.000 OA
ATOM      4  O   UNL     1       2.053   0.980   0.000  0.00  0.00    +0.000 OA
ATOM      5  C   UNL     1       4.951   0.104   0.000  0.00  0.00    +0.000 A 
ATOM      6  C   UNL     1       4.947   0.963   0.000  0.00  0.00    +0.000 A 
ATOM      7  C   UNL     1       4.205  -0.323   0.000  0.00  0.00    +0.000 A 
ATOM      8  C   UNL     1       4.198   1.384   0.000  0.00  0.00    +0.000 A 
ATOM      9  C   UNL     1       3.482   0.974   0.000  0.00  0.00    +0.000 A 
ATOM     10  C   UNL     1       3.489   2.624   0.000  0.00  0.00    +0.000 C 
ATOM     11  C   UNL     1       3.466   0.115   0.000  0.00  0.00    +0.000 A 
ATOM     12  C   UNL     1       2.773   2.215   0.000  0.00  0.00    +0.000 C 
ATOM     13  C   UNL     1       2.769   1.390   0.000  0.00  0.00    +0.000 C 
BRANCH  10  14
ATOM     14  C   UNL     1       3.492   3.449   0.000  0.00  0.00    +0.000 A 
ATOM     15  C   UNL     1       2.779   3.865   0.000  0.00  0.00    +0.000 A 
ATOM     16  C   UNL     1       4.208   3.859   0.000  0.00  0.00    +0.000 A 
ATOM     17  C   UNL     1       2.782   4.689   0.000  0.00  0.00    +0.000 A 
ATOM     18  C   UNL     1       4.211   4.684   0.000  0.00  0.00    +0.000 A 
ATOM     19  C   UNL     1       3.498   5.099   0.000  0.00  0.00    +0.000 A 
BRANCH  19  20
ATOM     20  O   UNL     1       3.502   5.924   0.000  0.00  0.00    +0.000 OA
ATOM     21  C   UNL     1       2.789   6.340   0.000  0.00  0.00    +0.000 C 
ENDBRANCH  19  20
ENDBRANCH  10  14
ENDBRANCH   1   5
BRANCH   1  29
ATOM     22  O   UNL     1       4.951  -1.546   0.000  0.00  0.00    +0.000 OA
ATOM     23  O   UNL     1       7.094  -2.784   0.000  0.00  0.00    +0.000 OA
ATOM     24  O   UNL     1       7.094  -1.134   0.000  0.00  0.00    +0.000 OA
ATOM     25  C   UNL     1       5.665  -2.784   0.000  0.00  0.00    +0.000 C 
ATOM     26  C   UNL     1       6.380  -2.371   0.000  0.00  0.00    +0.000 C 
ATOM     27  C   UNL     1       4.951  -2.371   0.000  0.00  0.00    +0.000 C 
ATOM     28  C   UNL     1       6.380  -1.546   0.000  0.00  0.00    +0.000 C 
ATOM     29  C   UNL     1       5.665  -1.134   0.000  0.00  0.00    +0.000 C 
ATOM     30  C   UNL     1       4.236  -2.784   0.000  0.00  0.00    +0.000 C 
BRANCH  25  31
ATOM     31  O   UNL     1       5.665  -3.609   0.000  0.00  0.00    +0.000 OA
BRANCH  31  36
ATOM     32  O   UNL     1       4.236  -3.609   0.000  0.00  0.00    +0.000 OA
ATOM     33  O   UNL     1       5.665  -5.259   0.000  0.00  0.00    +0.000 OA
ATOM     34  O   UNL     1       4.236  -6.084   0.000  0.00  0.00    +0.000 OA
ATOM     35  O   UNL     1       2.808  -5.259   0.000  0.00  0.00    +0.000 OA
ATOM     36  C   UNL     1       4.951  -4.021   0.000  0.00  0.00    +0.000 C 
ATOM     37  C   UNL     1       4.951  -4.846   0.000  0.00  0.00    +0.000 C 
ATOM     38  C   UNL     1       4.236  -5.259   0.000  0.00  0.00    +0.000 C 
ATOM     39  C   UNL     1       3.522  -4.846   0.000  0.00  0.00    +0.000 C 
ATOM     40  C   UNL     1       3.522  -4.021   0.000  0.00  0.00    +0.000 C 
BRANCH  40  42
ATOM     41  O   UNL     1       2.093  -4.021   0.000  0.00  0.00    +0.000 OA
ATOM     42  C   UNL     1       2.808  -3.609   0.000  0.00  0.00    +0.000 C 
ENDBRANCH  40  42
ENDBRANCH  31  36
ENDBRANCH  25  31
ENDBRANCH   1  29
TORSDOF 7
