REMARK  Name = 14375140
REMARK  9 active torsions:
REMARK  status: ('A' for Active; 'I' for Inactive)
REMARK    1  A    between atoms: O_2  and  C_25
REMARK    2  A    between atoms: O_2  and  C_29
REMARK    3  A    between atoms: O_5  and  C_28
REMARK    4  A    between atoms: O_5  and  C_38
REMARK    5  A    between atoms: O_12  and  C_35
REMARK    6  A    between atoms: O_12  and  C_42
REMARK    7  A    between atoms: C_20  and  C_29
REMARK    8  A    between atoms: C_34  and  C_37
REMARK    9  A    between atoms: C_39  and  C_46
REMARK                            x       y       z     vdW  Elec       q    Type
REMARK                         _______ _______ _______ _____ _____    ______ ____
ROOT
ATOM      1  O   UNL     1       5.650   0.716   0.000  0.00  0.00    +0.000 OA
ATOM      2  O   UNL     1       4.194  -1.780   0.000  0.00  0.00    +0.000 OA
ATOM      3  O   UNL     1       3.502  -0.513   0.000  0.00  0.00    +0.000 OA
ATOM      4  C   UNL     1       6.399  -1.389   0.000  0.00  0.00    +0.000 A 
ATOM      5  C   UNL     1       4.937   1.131   0.000  0.00  0.00    +0.000 C 
ATOM      6  C   UNL     1       6.396  -0.530   0.000  0.00  0.00    +0.000 A 
ATOM      7  C   UNL     1       5.647  -0.109   0.000  0.00  0.00    +0.000 A 
ATOM      8  C   UNL     1       4.931  -0.519   0.000  0.00  0.00    +0.000 A 
ATOM      9  C   UNL     1       5.653  -1.816   0.000  0.00  0.00    +0.000 A 
ATOM     10  C   UNL     1       4.221   0.721   0.000  0.00  0.00    +0.000 C 
ATOM     11  C   UNL     1       4.914  -1.378   0.000  0.00  0.00    +0.000 A 
ATOM     12  C   UNL     1       4.218  -0.104   0.000  0.00  0.00    +0.000 C 
ENDROOT
BRANCH   5  14
ATOM     13  C   UNL     1       4.947   3.606   0.000  0.00  0.00    +0.000 A 
ATOM     14  C   UNL     1       4.940   1.956   0.000  0.00  0.00    +0.000 A 
ATOM     15  C   UNL     1       4.231   3.196   0.000  0.00  0.00    +0.000 A 
ATOM     16  C   UNL     1       5.660   3.191   0.000  0.00  0.00    +0.000 A 
ATOM     17  C   UNL     1       4.228   2.371   0.000  0.00  0.00    +0.000 A 
ATOM     18  C   UNL     1       5.656   2.366   0.000  0.00  0.00    +0.000 A 
BRANCH  13  19
ATOM     19  O   UNL     1       4.950   4.431   0.000  0.00  0.00    +0.000 OA
BRANCH  19  28
ATOM     20  O   UNL     1       4.240   5.671   0.000  0.00  0.00    +0.000 OA
ATOM     21  O   UNL     1       2.092   4.442   0.000  0.00  0.00    +0.000 OA
ATOM     22  O   UNL     1       2.098   6.092   0.000  0.00  0.00    +0.000 OA
ATOM     23  O   UNL     1       3.518   3.612   0.000  0.00  0.00    +0.000 OA
ATOM     24  C   UNL     1       2.808   4.852   0.000  0.00  0.00    +0.000 C 
ATOM     25  C   UNL     1       2.811   5.677   0.000  0.00  0.00    +0.000 C 
ATOM     26  C   UNL     1       3.521   4.437   0.000  0.00  0.00    +0.000 C 
ATOM     27  C   UNL     1       3.527   6.087   0.000  0.00  0.00    +0.000 C 
ATOM     28  C   UNL     1       4.237   4.846   0.000  0.00  0.00    +0.000 C 
BRANCH  27  30
ATOM     29  O   UNL     1       4.247   7.321   0.000  0.00  0.00    +0.000 OA
ATOM     30  C   UNL     1       3.530   6.912   0.000  0.00  0.00    +0.000 C 
ENDBRANCH  27  30
ENDBRANCH  19  28
ENDBRANCH  13  19
ENDBRANCH   5  14
BRANCH   4  31
ATOM     31  O   UNL     1       7.114  -1.802   0.000  0.00  0.00    +0.000 OA
BRANCH  31  40
ATOM     32  O   UNL     1       6.399  -3.039   0.000  0.00  0.00    +0.000 OA
ATOM     33  O   UNL     1       7.114  -5.102   0.000  0.00  0.00    +0.000 OA
ATOM     34  O   UNL     1       8.543  -4.277   0.000  0.00  0.00    +0.000 OA
ATOM     35  O   UNL     1       8.543  -2.627   0.000  0.00  0.00    +0.000 OA
ATOM     36  C   UNL     1       6.399  -3.865   0.000  0.00  0.00    +0.000 C 
ATOM     37  C   UNL     1       7.114  -4.277   0.000  0.00  0.00    +0.000 C 
ATOM     38  C   UNL     1       7.828  -3.865   0.000  0.00  0.00    +0.000 C 
ATOM     39  C   UNL     1       7.828  -3.039   0.000  0.00  0.00    +0.000 C 
ATOM     40  C   UNL     1       7.114  -2.627   0.000  0.00  0.00    +0.000 C 
BRANCH  36  41
ATOM     41  C   UNL     1       5.685  -4.277   0.000  0.00  0.00    +0.000 C 
BRANCH  41  42
ATOM     42  O   UNL     1       5.685  -5.102   0.000  0.00  0.00    +0.000 OA
BRANCH  42  48
ATOM     43  O   UNL     1       4.256  -5.102   0.000  0.00  0.00    +0.000 OA
ATOM     44  O   UNL     1       5.685  -6.752   0.000  0.00  0.00    +0.000 OA
ATOM     45  O   UNL     1       4.256  -7.577   0.000  0.00  0.00    +0.000 OA
ATOM     46  O   UNL     1       2.827  -6.752   0.000  0.00  0.00    +0.000 OA
ATOM     47  C   UNL     1       4.970  -6.340   0.000  0.00  0.00    +0.000 C 
ATOM     48  C   UNL     1       4.970  -5.514   0.000  0.00  0.00    +0.000 C 
ATOM     49  C   UNL     1       4.256  -6.752   0.000  0.00  0.00    +0.000 C 
ATOM     50  C   UNL     1       3.541  -6.340   0.000  0.00  0.00    +0.000 C 
ATOM     51  C   UNL     1       3.541  -5.514   0.000  0.00  0.00    +0.000 C 
ATOM     52  C   UNL     1       2.827  -5.102   0.000  0.00  0.00    +0.000 C 
ENDBRANCH  42  48
ENDBRANCH  41  42
ENDBRANCH  36  41
ENDBRANCH  31  40
ENDBRANCH   4  31
TORSDOF 9
