REMARK  Name = 44257631
REMARK  3 active torsions:
REMARK  status: ('A' for Active; 'I' for Inactive)
REMARK    1  A    between atoms: O_2  and  C_12
REMARK    2  A    between atoms: O_2  and  C_14
REMARK    3  A    between atoms: C_21  and  C_23
REMARK                            x       y       z     vdW  Elec       q    Type
REMARK                         _______ _______ _______ _____ _____    ______ ____
ROOT
ATOM      1  O   UNL     1       6.377  -2.009   0.000  0.00  0.00    +0.000 OA
ATOM      2  O   UNL     1       3.465  -2.029   0.000  0.00  0.00    +0.000 OA
ATOM      3  O   UNL     1       6.377   0.466   0.000  0.00  0.00    +0.000 OA
ATOM      4  C   UNL     1       4.925  -0.331   0.000  0.00  0.00    +0.000 A 
ATOM      5  C   UNL     1       5.662  -0.772   0.000  0.00  0.00    +0.000 A 
ATOM      6  C   UNL     1       5.662  -1.597   0.000  0.00  0.00    +0.000 A 
ATOM      7  C   UNL     1       4.178  -0.754   0.000  0.00  0.00    +0.000 A 
ATOM      8  C   UNL     1       6.377  -0.359   0.000  0.00  0.00    +0.000 A 
ATOM      9  C   UNL     1       4.178  -1.614   0.000  0.00  0.00    +0.000 A 
ATOM     10  C   UNL     1       4.925  -2.038   0.000  0.00  0.00    +0.000 A 
ATOM     11  C   UNL     1       7.091  -1.597   0.000  0.00  0.00    +0.000 A 
ATOM     12  C   UNL     1       7.091  -0.772   0.000  0.00  0.00    +0.000 A 
ENDROOT
BRANCH  11  13
ATOM     13  C   UNL     1       7.806  -2.009   0.000  0.00  0.00    +0.000 A 
ATOM     14  C   UNL     1       8.520  -1.597   0.000  0.00  0.00    +0.000 A 
ATOM     15  C   UNL     1       7.806  -2.834   0.000  0.00  0.00    +0.000 A 
ATOM     16  C   UNL     1       9.235  -2.009   0.000  0.00  0.00    +0.000 A 
ATOM     17  C   UNL     1       8.520  -3.247   0.000  0.00  0.00    +0.000 A 
ATOM     18  C   UNL     1       9.235  -2.834   0.000  0.00  0.00    +0.000 A 
ENDBRANCH  11  13
BRANCH   4  19
ATOM     19  O   UNL     1       4.934   0.494   0.000  0.00  0.00    +0.000 OA
BRANCH  19  27
ATOM     20  O   UNL     1       3.506   0.511   0.000  0.00  0.00    +0.000 OA
ATOM     21  O   UNL     1       3.534   2.986   0.000  0.00  0.00    +0.000 OA
ATOM     22  O   UNL     1       4.954   2.144   0.000  0.00  0.00    +0.000 OA
ATOM     23  O   UNL     1       2.096   2.177   0.000  0.00  0.00    +0.000 OA
ATOM     24  C   UNL     1       3.525   2.161   0.000  0.00  0.00    +0.000 C 
ATOM     25  C   UNL     1       4.234   1.740   0.000  0.00  0.00    +0.000 C 
ATOM     26  C   UNL     1       2.806   1.757   0.000  0.00  0.00    +0.000 C 
ATOM     27  C   UNL     1       4.225   0.915   0.000  0.00  0.00    +0.000 C 
ATOM     28  C   UNL     1       2.796   0.932   0.000  0.00  0.00    +0.000 C 
ENDBRANCH  19  27
ENDBRANCH   4  19
TORSDOF 3
