REMARK  Name = 44258471
REMARK  8 active torsions:
REMARK  status: ('A' for Active; 'I' for Inactive)
REMARK    1  A    between atoms: O_2  and  C_17
REMARK    2  A    between atoms: O_2  and  C_19
REMARK    3  A    between atoms: O_6  and  C_18
REMARK    4  A    between atoms: O_6  and  C_25
REMARK    5  A    between atoms: O_8  and  C_20
REMARK    6  A    between atoms: O_12  and  C_36
REMARK    7  A    between atoms: C_15  and  C_18
REMARK    8  A    between atoms: C_27  and  C_30
REMARK                            x       y       z     vdW  Elec       q    Type
REMARK                         _______ _______ _______ _____ _____    ______ ____
ROOT
ATOM      1  O   UNL     1       8.117   0.944   0.000  0.00  0.00    +0.000 OA
ATOM      2  O   UNL     1       5.222   0.938   0.000  0.00  0.00    +0.000 OA
ATOM      3  O   UNL     1       5.919   2.202   0.000  0.00  0.00    +0.000 OA
ATOM      4  C   UNL     1       6.651  -0.712   0.000  0.00  0.00    +0.000 A 
ATOM      5  C   UNL     1       5.937  -0.299   0.000  0.00  0.00    +0.000 A 
ATOM      6  C   UNL     1       7.366  -0.299   0.000  0.00  0.00    +0.000 A 
ATOM      7  C   UNL     1       7.366   0.526   0.000  0.00  0.00    +0.000 A 
ATOM      8  C   UNL     1       6.651   0.938   0.000  0.00  0.00    +0.000 A 
ATOM      9  C   UNL     1       5.937   0.526   0.000  0.00  0.00    +0.000 A 
ATOM     10  C   UNL     1       6.638   1.798   0.000  0.00  0.00    +0.000 A 
ATOM     11  C   UNL     1       8.123   1.803   0.000  0.00  0.00    +0.000 A 
ATOM     12  C   UNL     1       7.379   2.233   0.000  0.00  0.00    +0.000 A 
ENDROOT
BRANCH  11  13
ATOM     13  C   UNL     1       8.839   2.213   0.000  0.00  0.00    +0.000 A 
ATOM     14  C   UNL     1       8.842   3.038   0.000  0.00  0.00    +0.000 A 
ATOM     15  C   UNL     1       9.552   1.798   0.000  0.00  0.00    +0.000 A 
ATOM     16  C   UNL     1       9.558   3.448   0.000  0.00  0.00    +0.000 A 
ATOM     17  C   UNL     1      10.268   2.208   0.000  0.00  0.00    +0.000 A 
ATOM     18  C   UNL     1      10.271   3.033   0.000  0.00  0.00    +0.000 A 
BRANCH  18  19
ATOM     19  O   UNL     1      10.987   3.442   0.000  0.00  0.00    +0.000 OA
ATOM     20  C   UNL     1      10.991   4.267   0.000  0.00  0.00    +0.000 C 
ENDBRANCH  18  19
ENDBRANCH  11  13
BRANCH   5  21
ATOM     21  O   UNL     1       5.222  -0.712   0.000  0.00  0.00    +0.000 OA
ATOM     22  C   UNL     1       4.508  -0.299   0.000  0.00  0.00    +0.000 C 
ENDBRANCH   5  21
BRANCH   4  23
ATOM     23  O   UNL     1       6.651  -1.537   0.000  0.00  0.00    +0.000 OA
BRANCH  23  32
ATOM     24  O   UNL     1       5.222  -1.537   0.000  0.00  0.00    +0.000 OA
ATOM     25  O   UNL     1       3.793  -3.187   0.000  0.00  0.00    +0.000 OA
ATOM     26  O   UNL     1       5.222  -4.012   0.000  0.00  0.00    +0.000 OA
ATOM     27  O   UNL     1       6.651  -3.187   0.000  0.00  0.00    +0.000 OA
ATOM     28  C   UNL     1       4.508  -2.774   0.000  0.00  0.00    +0.000 C 
ATOM     29  C   UNL     1       5.222  -3.187   0.000  0.00  0.00    +0.000 C 
ATOM     30  C   UNL     1       4.508  -1.949   0.000  0.00  0.00    +0.000 C 
ATOM     31  C   UNL     1       5.937  -2.774   0.000  0.00  0.00    +0.000 C 
ATOM     32  C   UNL     1       5.937  -1.949   0.000  0.00  0.00    +0.000 C 
BRANCH  30  33
ATOM     33  C   UNL     1       3.793  -1.537   0.000  0.00  0.00    +0.000 C 
BRANCH  33  34
ATOM     34  O   UNL     1       3.079  -1.949   0.000  0.00  0.00    +0.000 OA
BRANCH  34  36
ATOM     35  O   UNL     1       2.364  -0.712   0.000  0.00  0.00    +0.000 OA
ATOM     36  C   UNL     1       2.364  -1.537   0.000  0.00  0.00    +0.000 C 
ATOM     37  C   UNL     1       1.650  -1.949   0.000  0.00  0.00    +0.000 C 
ENDBRANCH  34  36
ENDBRANCH  33  34
ENDBRANCH  30  33
ENDBRANCH  23  32
ENDBRANCH   4  23
TORSDOF 8
