REMARK  Name = 44258391
REMARK  10 active torsions:
REMARK  status: ('A' for Active; 'I' for Inactive)
REMARK    1  A    between atoms: O_1  and  C_17
REMARK    2  A    between atoms: O_1  and  C_22
REMARK    3  A    between atoms: O_9  and  C_28
REMARK    4  A    between atoms: O_9  and  C_36
REMARK    5  A    between atoms: O_10  and  C_30
REMARK    6  A    between atoms: O_15  and  C_44
REMARK    7  A    between atoms: O_16  and  C_46
REMARK    8  A    between atoms: C_19  and  C_27
REMARK    9  A    between atoms: C_21  and  C_28
REMARK   10  A    between atoms: C_38  and  C_41
REMARK                            x       y       z     vdW  Elec       q    Type
REMARK                         _______ _______ _______ _____ _____    ______ ____
ROOT
ATOM      1  O   UNL     1       5.665   0.953   0.000  0.00  0.00    +0.000 OA
ATOM      2  O   UNL     1       3.522  -0.285   0.000  0.00  0.00    +0.000 OA
ATOM      3  O   UNL     1       3.522   1.365   0.000  0.00  0.00    +0.000 OA
ATOM      4  C   UNL     1       4.951  -0.285   0.000  0.00  0.00    +0.000 C 
ATOM      5  C   UNL     1       4.236   0.128   0.000  0.00  0.00    +0.000 C 
ATOM      6  C   UNL     1       5.665   0.128   0.000  0.00  0.00    +0.000 C 
ATOM      7  C   UNL     1       4.236   0.953   0.000  0.00  0.00    +0.000 C 
ATOM      8  C   UNL     1       4.951   1.365   0.000  0.00  0.00    +0.000 C 
ENDROOT
BRANCH   6  12
ATOM      9  O   UNL     1       7.094   0.953   0.000  0.00  0.00    +0.000 OA
ATOM     10  O   UNL     1       8.546  -1.551   0.000  0.00  0.00    +0.000 OA
ATOM     11  O   UNL     1       8.537   0.981   0.000  0.00  0.00    +0.000 OA
ATOM     12  C   UNL     1       6.380  -0.285   0.000  0.00  0.00    +0.000 A 
ATOM     13  C   UNL     1       7.094   0.128   0.000  0.00  0.00    +0.000 A 
ATOM     14  C   UNL     1       6.380  -1.110   0.000  0.00  0.00    +0.000 A 
ATOM     15  C   UNL     1       7.809  -0.285   0.000  0.00  0.00    +0.000 A 
ATOM     16  C   UNL     1       7.094  -1.522   0.000  0.00  0.00    +0.000 A 
ATOM     17  C   UNL     1       7.809  -1.110   0.000  0.00  0.00    +0.000 A 
ATOM     18  C   UNL     1       8.546   0.157   0.000  0.00  0.00    +0.000 A 
ATOM     19  C   UNL     1       9.294  -0.268   0.000  0.00  0.00    +0.000 A 
ATOM     20  C   UNL     1       9.294  -1.127   0.000  0.00  0.00    +0.000 A 
BRANCH  20  21
ATOM     21  C   UNL     1      10.007  -1.542   0.000  0.00  0.00    +0.000 A 
ATOM     22  C   UNL     1      10.723  -1.132   0.000  0.00  0.00    +0.000 A 
ATOM     23  C   UNL     1      10.004  -2.367   0.000  0.00  0.00    +0.000 A 
ATOM     24  C   UNL     1      11.436  -1.548   0.000  0.00  0.00    +0.000 A 
ATOM     25  C   UNL     1      10.716  -2.782   0.000  0.00  0.00    +0.000 A 
ATOM     26  C   UNL     1      11.432  -2.373   0.000  0.00  0.00    +0.000 A 
BRANCH  24  27
ATOM     27  O   UNL     1      12.152  -1.138   0.000  0.00  0.00    +0.000 OA
ATOM     28  C   UNL     1      12.864  -1.553   0.000  0.00  0.00    +0.000 C 
ENDBRANCH  24  27
BRANCH  26  29
ATOM     29  O   UNL     1      12.145  -2.788   0.000  0.00  0.00    +0.000 OA
ATOM     30  C   UNL     1      12.142  -3.613   0.000  0.00  0.00    +0.000 C 
ENDBRANCH  26  29
ENDBRANCH  20  21
BRANCH  14  31
ATOM     31  O   UNL     1       5.665  -1.522   0.000  0.00  0.00    +0.000 OA
ATOM     32  C   UNL     1       5.665  -2.347   0.000  0.00  0.00    +0.000 C 
ENDBRANCH  14  31
ENDBRANCH   6  12
BRANCH   4  33
ATOM     33  O   UNL     1       4.951  -1.110   0.000  0.00  0.00    +0.000 OA
BRANCH  33  38
ATOM     34  O   UNL     1       3.522  -1.110   0.000  0.00  0.00    +0.000 OA
ATOM     35  O   UNL     1       4.951  -2.760   0.000  0.00  0.00    +0.000 OA
ATOM     36  O   UNL     1       3.522  -3.585   0.000  0.00  0.00    +0.000 OA
ATOM     37  O   UNL     1       2.093  -2.760   0.000  0.00  0.00    +0.000 OA
ATOM     38  C   UNL     1       4.236  -1.522   0.000  0.00  0.00    +0.000 C 
ATOM     39  C   UNL     1       4.236  -2.347   0.000  0.00  0.00    +0.000 C 
ATOM     40  C   UNL     1       3.522  -2.760   0.000  0.00  0.00    +0.000 C 
ATOM     41  C   UNL     1       2.808  -2.347   0.000  0.00  0.00    +0.000 C 
ATOM     42  C   UNL     1       2.808  -1.522   0.000  0.00  0.00    +0.000 C 
ATOM     43  C   UNL     1       2.093  -1.110   0.000  0.00  0.00    +0.000 C 
ENDBRANCH  33  38
ENDBRANCH   4  33
BRANCH   8  44
ATOM     44  C   UNL     1       4.951   2.190   0.000  0.00  0.00    +0.000 C 
BRANCH  44  45
ATOM     45  O   UNL     1       4.236   2.603   0.000  0.00  0.00    +0.000 OA
BRANCH  45  47
ATOM     46  O   UNL     1       4.951   3.840   0.000  0.00  0.00    +0.000 OA
ATOM     47  C   UNL     1       4.236   3.428   0.000  0.00  0.00    +0.000 C 
ATOM     48  C   UNL     1       3.522   3.840   0.000  0.00  0.00    +0.000 C 
ENDBRANCH  45  47
ENDBRANCH  44  45
ENDBRANCH   8  44
TORSDOF 10
