REMARK  Name = 44258355
REMARK  9 active torsions:
REMARK  status: ('A' for Active; 'I' for Inactive)
REMARK    1  A    between atoms: O_2  and  C_18
REMARK    2  A    between atoms: O_2  and  C_20
REMARK    3  A    between atoms: O_6  and  C_19
REMARK    4  A    between atoms: O_6  and  C_24
REMARK    5  A    between atoms: O_8  and  C_25
REMARK    6  A    between atoms: C_16  and  C_19
REMARK    7  A    between atoms: C_24  and  C_28
REMARK    8  A    between atoms: C_28  and  C_32
REMARK    9  A    between atoms: C_30  and  C_31
REMARK                            x       y       z     vdW  Elec       q    Type
REMARK                         _______ _______ _______ _____ _____    ______ ____
ROOT
ATOM      1  O   UNL     1       9.995   2.002   0.000  0.00  0.00    +0.000 OA
ATOM      2  O   UNL     1       9.966  -0.472   0.000  0.00  0.00    +0.000 OA
ATOM      3  C   UNL     1       8.523   0.341   0.000  0.00  0.00    +0.000 A 
ATOM      4  C   UNL     1       9.266   0.773   0.000  0.00  0.00    +0.000 A 
ATOM      5  C   UNL     1       7.781   0.773   0.000  0.00  0.00    +0.000 A 
ATOM      6  C   UNL     1       9.275   1.598   0.000  0.00  0.00    +0.000 A 
ATOM      7  C   UNL     1       7.791   1.633   0.000  0.00  0.00    +0.000 A 
ATOM      8  C   UNL     1       9.975   0.352   0.000  0.00  0.00    +0.000 A 
ATOM      9  C   UNL     1       8.543   2.048   0.000  0.00  0.00    +0.000 A 
ATOM     10  C   UNL     1      10.695   0.757   0.000  0.00  0.00    +0.000 A 
ATOM     11  C   UNL     1      10.704   1.582   0.000  0.00  0.00    +0.000 A 
ENDROOT
BRANCH  11  13
ATOM     12  O   UNL     1      13.581   3.199   0.000  0.00  0.00    +0.000 OA
ATOM     13  C   UNL     1      11.423   1.986   0.000  0.00  0.00    +0.000 A 
ATOM     14  C   UNL     1      11.433   2.811   0.000  0.00  0.00    +0.000 A 
ATOM     15  C   UNL     1      12.133   1.565   0.000  0.00  0.00    +0.000 A 
ATOM     16  C   UNL     1      12.152   3.215   0.000  0.00  0.00    +0.000 A 
ATOM     17  C   UNL     1      12.852   1.969   0.000  0.00  0.00    +0.000 A 
ATOM     18  C   UNL     1      12.862   2.794   0.000  0.00  0.00    +0.000 A 
ENDBRANCH  11  13
BRANCH   7  19
ATOM     19  O   UNL     1       7.082   2.056   0.000  0.00  0.00    +0.000 OA
ATOM     20  C   UNL     1       7.095   2.881   0.000  0.00  0.00    +0.000 C 
ENDBRANCH   7  19
BRANCH   3  21
ATOM     21  O   UNL     1       8.523  -0.484   0.000  0.00  0.00    +0.000 OA
BRANCH  21  30
ATOM     22  O   UNL     1       7.094  -0.484   0.000  0.00  0.00    +0.000 OA
ATOM     23  O   UNL     1       5.665  -2.134   0.000  0.00  0.00    +0.000 OA
ATOM     24  O   UNL     1       7.094  -2.959   0.000  0.00  0.00    +0.000 OA
ATOM     25  O   UNL     1       8.523  -2.134   0.000  0.00  0.00    +0.000 OA
ATOM     26  C   UNL     1       6.380  -1.722   0.000  0.00  0.00    +0.000 C 
ATOM     27  C   UNL     1       7.094  -2.134   0.000  0.00  0.00    +0.000 C 
ATOM     28  C   UNL     1       6.380  -0.897   0.000  0.00  0.00    +0.000 C 
ATOM     29  C   UNL     1       7.809  -1.722   0.000  0.00  0.00    +0.000 C 
ATOM     30  C   UNL     1       7.809  -0.897   0.000  0.00  0.00    +0.000 C 
BRANCH  28  31
ATOM     31  C   UNL     1       5.665  -0.484   0.000  0.00  0.00    +0.000 C 
BRANCH  31  32
ATOM     32  O   UNL     1       4.951  -0.897   0.000  0.00  0.00    +0.000 OA
BRANCH  32  34
ATOM     33  O   UNL     1       4.236   0.341   0.000  0.00  0.00    +0.000 OA
ATOM     34  C   UNL     1       4.236  -0.484   0.000  0.00  0.00    +0.000 C 
BRANCH  34  35
ATOM     35  C   UNL     1       3.522  -0.897   0.000  0.00  0.00    +0.000 C 
BRANCH  35  38
ATOM     36  O   UNL     1       2.093  -0.897   0.000  0.00  0.00    +0.000 OA
ATOM     37  O   UNL     1       2.808   0.341   0.000  0.00  0.00    +0.000 OA
ATOM     38  C   UNL     1       2.808  -0.484   0.000  0.00  0.00    +0.000 C 
ENDBRANCH  35  38
ENDBRANCH  34  35
ENDBRANCH  32  34
ENDBRANCH  31  32
ENDBRANCH  28  31
ENDBRANCH  21  30
ENDBRANCH   3  21
TORSDOF 9
