REMARK  Name = 44259078
REMARK  15 active torsions:
REMARK  status: ('A' for Active; 'I' for Inactive)
REMARK    1  A    between atoms: O_1  and  C_19
REMARK    2  A    between atoms: O_1  and  C_21
REMARK    3  A    between atoms: O_4  and  C_20
REMARK    4  A    between atoms: O_4  and  C_31
REMARK    5  A    between atoms: O_5  and  C_25
REMARK    6  A    between atoms: O_5  and  C_33
REMARK    7  A    between atoms: O_8  and  C_28
REMARK    8  A    between atoms: O_8  and  C_32
REMARK    9  A    between atoms: O_10  and  C_29
REMARK   10  A    between atoms: O_10  and  C_37
REMARK   11  A    between atoms: O_18  and  C_52
REMARK   12  A    between atoms: C_27  and  C_29
REMARK   13  A    between atoms: C_34  and  C_41
REMARK   14  A    between atoms: C_42  and  C_49
REMARK   15  A    between atoms: C_49  and  C_53
REMARK                            x       y       z     vdW  Elec       q    Type
REMARK                         _______ _______ _______ _____ _____    ______ ____
ROOT
ATOM      1  O   UNL     1       6.651  -0.215   0.000  0.00  0.00    +0.000 OA
ATOM      2  O   UNL     1       8.080  -1.865   0.000  0.00  0.00    +0.000 OA
ATOM      3  C   UNL     1       6.651  -1.865   0.000  0.00  0.00    +0.000 C 
ATOM      4  C   UNL     1       5.937  -1.452   0.000  0.00  0.00    +0.000 C 
ATOM      5  C   UNL     1       7.366  -1.452   0.000  0.00  0.00    +0.000 C 
ATOM      6  C   UNL     1       5.937  -0.627   0.000  0.00  0.00    +0.000 C 
ATOM      7  C   UNL     1       7.366  -0.627   0.000  0.00  0.00    +0.000 C 
ATOM      8  C   UNL     1       5.222  -0.215   0.000  0.00  0.00    +0.000 C 
ENDROOT
BRANCH   3   9
ATOM      9  O   UNL     1       6.651  -2.690   0.000  0.00  0.00    +0.000 OA
BRANCH   9  13
ATOM     10  O   UNL     1       5.222  -2.690   0.000  0.00  0.00    +0.000 OA
ATOM     11  O   UNL     1       6.651  -4.340   0.000  0.00  0.00    +0.000 OA
ATOM     12  O   UNL     1       5.222  -5.165   0.000  0.00  0.00    +0.000 OA
ATOM     13  C   UNL     1       5.937  -3.103   0.000  0.00  0.00    +0.000 C 
ATOM     14  C   UNL     1       5.937  -3.928   0.000  0.00  0.00    +0.000 C 
ATOM     15  C   UNL     1       5.222  -4.340   0.000  0.00  0.00    +0.000 C 
ATOM     16  C   UNL     1       4.508  -3.928   0.000  0.00  0.00    +0.000 C 
ATOM     17  C   UNL     1       4.508  -3.103   0.000  0.00  0.00    +0.000 C 
BRANCH  16  18
ATOM     18  O   UNL     1       3.793  -4.340   0.000  0.00  0.00    +0.000 OA
BRANCH  18  20
ATOM     19  O   UNL     1       4.508  -5.577   0.000  0.00  0.00    +0.000 OA
ATOM     20  C   UNL     1       3.793  -5.165   0.000  0.00  0.00    +0.000 C 
ATOM     21  C   UNL     1       3.079  -5.577   0.000  0.00  0.00    +0.000 C 
ENDBRANCH  18  20
ENDBRANCH  16  18
BRANCH  17  22
ATOM     22  C   UNL     1       3.793  -2.690   0.000  0.00  0.00    +0.000 C 
BRANCH  22  23
ATOM     23  O   UNL     1       3.079  -3.103   0.000  0.00  0.00    +0.000 OA
BRANCH  23  25
ATOM     24  O   UNL     1       1.650  -3.103   0.000  0.00  0.00    +0.000 OA
ATOM     25  C   UNL     1       2.365  -2.690   0.000  0.00  0.00    +0.000 C 
ATOM     26  C   UNL     1       2.365  -1.865   0.000  0.00  0.00    +0.000 C 
ENDBRANCH  23  25
ENDBRANCH  22  23
ENDBRANCH  17  22
ENDBRANCH   9  13
ENDBRANCH   3   9
BRANCH   4  27
ATOM     27  O   UNL     1       5.222  -1.865   0.000  0.00  0.00    +0.000 OA
BRANCH  27  29
ATOM     28  O   UNL     1       3.793  -1.865   0.000  0.00  0.00    +0.000 OA
ATOM     29  C   UNL     1       4.508  -1.452   0.000  0.00  0.00    +0.000 C 
ATOM     30  C   UNL     1       4.508  -0.627   0.000  0.00  0.00    +0.000 C 
ENDBRANCH  27  29
ENDBRANCH   4  27
BRANCH   7  31
ATOM     31  O   UNL     1       8.080  -0.215   0.000  0.00  0.00    +0.000 OA
BRANCH  31  36
ATOM     32  O   UNL     1       8.795   1.847   0.000  0.00  0.00    +0.000 OA
ATOM     33  O   UNL     1       6.651   0.610   0.000  0.00  0.00    +0.000 OA
ATOM     34  O   UNL     1       5.905   1.845   0.000  0.00  0.00    +0.000 OA
ATOM     35  O   UNL     1       7.356   4.380   0.000  0.00  0.00    +0.000 OA
ATOM     36  C   UNL     1       8.080   0.610   0.000  0.00  0.00    +0.000 A 
ATOM     37  C   UNL     1       8.795   1.022   0.000  0.00  0.00    +0.000 A 
ATOM     38  C   UNL     1       7.366   1.022   0.000  0.00  0.00    +0.000 A 
ATOM     39  C   UNL     1       7.366   1.847   0.000  0.00  0.00    +0.000 A 
ATOM     40  C   UNL     1       8.080   2.260   0.000  0.00  0.00    +0.000 A 
ATOM     41  C   UNL     1       8.094   3.119   0.000  0.00  0.00    +0.000 A 
ATOM     42  C   UNL     1       6.615   2.266   0.000  0.00  0.00    +0.000 A 
ATOM     43  C   UNL     1       7.353   3.555   0.000  0.00  0.00    +0.000 A 
ATOM     44  C   UNL     1       6.608   3.125   0.000  0.00  0.00    +0.000 A 
BRANCH  37  45
ATOM     45  C   UNL     1       9.509   0.610   0.000  0.00  0.00    +0.000 A 
ATOM     46  C   UNL     1       9.509  -0.215   0.000  0.00  0.00    +0.000 A 
ATOM     47  C   UNL     1      10.224   1.022   0.000  0.00  0.00    +0.000 A 
ATOM     48  C   UNL     1      10.224  -0.627   0.000  0.00  0.00    +0.000 A 
ATOM     49  C   UNL     1      10.938   0.610   0.000  0.00  0.00    +0.000 A 
ATOM     50  C   UNL     1      10.938  -0.215   0.000  0.00  0.00    +0.000 A 
BRANCH  50  51
ATOM     51  O   UNL     1      11.653  -0.627   0.000  0.00  0.00    +0.000 OA
ATOM     52  C   UNL     1      12.367  -0.215   0.000  0.00  0.00    +0.000 C 
ENDBRANCH  50  51
ENDBRANCH  37  45
BRANCH  41  53
ATOM     53  C   UNL     1       8.813   3.523   0.000  0.00  0.00    +0.000 C 
BRANCH  53  54
ATOM     54  C   UNL     1       8.822   4.348   0.000  0.00  0.00    +0.000 C 
ATOM     55  C   UNL     1       9.541   4.753   0.000  0.00  0.00    +0.000 C 
ATOM     56  C   UNL     1       9.551   5.577   0.000  0.00  0.00    +0.000 C 
ATOM     57  C   UNL     1      10.251   4.332   0.000  0.00  0.00    +0.000 C 
ENDBRANCH  53  54
ENDBRANCH  41  53
ENDBRANCH  31  36
ENDBRANCH   7  31
TORSDOF 15
