REMARK  Name = 131831813
REMARK  3 active torsions:
REMARK  status: ('A' for Active; 'I' for Inactive)
REMARK    1  A    between atoms: S_1  and  O_3
REMARK    2  A    between atoms: O_3  and  C_12
REMARK    3  A    between atoms: C_11  and  C_14
REMARK                            x       y       z     vdW  Elec       q    Type
REMARK                         _______ _______ _______ _____ _____    ______ ____
ROOT
ATOM      1  O   UNL     1       5.006  -0.619   0.000  0.00  0.00    +0.000 OA
ATOM      2  O   UNL     1       5.006   1.856   0.000  0.00  0.00    +0.000 OA
ATOM      3  O   UNL     1       3.564   1.885   0.000  0.00  0.00    +0.000 OA
ATOM      4  O   UNL     1       2.094  -0.639   0.000  0.00  0.00    +0.000 OA
ATOM      5  C   UNL     1       5.721  -0.206   0.000  0.00  0.00    +0.000 C 
ATOM      6  C   UNL     1       5.721   0.619   0.000  0.00  0.00    +0.000 C 
ATOM      7  C   UNL     1       5.006   1.031   0.000  0.00  0.00    +0.000 C 
ATOM      8  C   UNL     1       4.292   0.619   0.000  0.00  0.00    +0.000 A 
ATOM      9  C   UNL     1       4.292  -0.206   0.000  0.00  0.00    +0.000 A 
ATOM     10  C   UNL     1       3.554   1.060   0.000  0.00  0.00    +0.000 A 
ATOM     11  C   UNL     1       3.554  -0.647   0.000  0.00  0.00    +0.000 A 
ATOM     12  C   UNL     1       2.807   0.636   0.000  0.00  0.00    +0.000 A 
ATOM     13  C   UNL     1       2.807  -0.223   0.000  0.00  0.00    +0.000 A 
ENDROOT
BRANCH   5  15
ATOM     14  O   UNL     1       7.150  -2.681   0.000  0.00  0.00    +0.000 OA
ATOM     15  C   UNL     1       6.435  -0.619   0.000  0.00  0.00    +0.000 A 
ATOM     16  C   UNL     1       6.435  -1.444   0.000  0.00  0.00    +0.000 A 
ATOM     17  C   UNL     1       7.150  -0.206   0.000  0.00  0.00    +0.000 A 
ATOM     18  C   UNL     1       7.150  -1.856   0.000  0.00  0.00    +0.000 A 
ATOM     19  C   UNL     1       7.864  -0.619   0.000  0.00  0.00    +0.000 A 
ATOM     20  C   UNL     1       7.864  -1.444   0.000  0.00  0.00    +0.000 A 
ENDBRANCH   5  15
BRANCH   6  21
ATOM     21  O   UNL     1       6.435   1.031   0.000  0.00  0.00    +0.000 OA
BRANCH  21  22
ATOM     22  S   UNL     1       6.435   1.856   0.000  0.00  0.00    +0.000 S 
ATOM     23  O   UNL     1       6.435   2.681   0.000  0.00  0.00    +0.000 OA
ATOM     24  O   UNL     1       7.260   1.856   0.000  0.00  0.00    +0.000 OA
ATOM     25  O   UNL     1       5.610   1.856   0.000  0.00  0.00    +0.000 OA
ENDBRANCH  21  22
ENDBRANCH   6  21
TORSDOF 3
