REMARK  Name = 73810292
REMARK  12 active torsions:
REMARK  status: ('A' for Active; 'I' for Inactive)
REMARK    1  A    between atoms: O_1  and  C_20
REMARK    2  A    between atoms: O_1  and  C_22
REMARK    3  A    between atoms: O_5  and  C_26
REMARK    4  A    between atoms: O_5  and  C_32
REMARK    5  A    between atoms: O_10  and  C_31
REMARK    6  A    between atoms: O_10  and  C_35
REMARK    7  A    between atoms: O_16  and  C_46
REMARK    8  A    between atoms: C_27  and  C_30
REMARK    9  A    between atoms: C_29  and  C_31
REMARK   10  A    between atoms: C_33  and  C_37
REMARK   11  A    between atoms: C_35  and  C_40
REMARK   12  A    between atoms: C_48  and  C_50
REMARK                            x       y       z     vdW  Elec       q    Type
REMARK                         _______ _______ _______ _____ _____    ______ ____
ROOT
ATOM      1  O   UNL     1       4.951   2.652   0.000  0.00  0.00    +0.000 OA
ATOM      2  O   UNL     1       4.951   0.177   0.000  0.00  0.00    +0.000 OA
ATOM      3  O   UNL     1       3.522   1.002   0.000  0.00  0.00    +0.000 OA
ATOM      4  C   UNL     1       5.665   1.414   0.000  0.00  0.00    +0.000 C 
ATOM      5  C   UNL     1       4.951   1.002   0.000  0.00  0.00    +0.000 C 
ATOM      6  C   UNL     1       4.236   1.414   0.000  0.00  0.00    +0.000 C 
ATOM      7  C   UNL     1       5.665   2.239   0.000  0.00  0.00    +0.000 C 
ATOM      8  C   UNL     1       4.236   2.239   0.000  0.00  0.00    +0.000 C 
ENDROOT
BRANCH   8  10
ATOM      9  O   UNL     1       2.808   2.239   0.000  0.00  0.00    +0.000 OA
ATOM     10  C   UNL     1       3.522   2.652   0.000  0.00  0.00    +0.000 C 
ENDBRANCH   8  10
BRANCH   4  11
ATOM     11  O   UNL     1       6.380   1.002   0.000  0.00  0.00    +0.000 OA
BRANCH  11  16
ATOM     12  O   UNL     1       5.665  -0.236   0.000  0.00  0.00    +0.000 OA
ATOM     13  O   UNL     1       7.809   0.177   0.000  0.00  0.00    +0.000 OA
ATOM     14  O   UNL     1       7.809  -1.473   0.000  0.00  0.00    +0.000 OA
ATOM     15  O   UNL     1       6.380  -2.298   0.000  0.00  0.00    +0.000 OA
ATOM     16  C   UNL     1       6.380   0.177   0.000  0.00  0.00    +0.000 C 
ATOM     17  C   UNL     1       7.094  -0.236   0.000  0.00  0.00    +0.000 C 
ATOM     18  C   UNL     1       7.094  -1.061   0.000  0.00  0.00    +0.000 C 
ATOM     19  C   UNL     1       6.380  -1.473   0.000  0.00  0.00    +0.000 C 
ATOM     20  C   UNL     1       5.665  -1.061   0.000  0.00  0.00    +0.000 C 
BRANCH  20  21
ATOM     21  C   UNL     1       4.951  -1.473   0.000  0.00  0.00    +0.000 C 
BRANCH  21  22
ATOM     22  O   UNL     1       4.951  -2.298   0.000  0.00  0.00    +0.000 OA
BRANCH  22  24
ATOM     23  O   UNL     1       3.522  -2.298   0.000  0.00  0.00    +0.000 OA
ATOM     24  C   UNL     1       4.236  -2.711   0.000  0.00  0.00    +0.000 C 
BRANCH  24  25
ATOM     25  C   UNL     1       4.236  -3.536   0.000  0.00  0.00    +0.000 C 
ATOM     26  C   UNL     1       3.522  -3.948   0.000  0.00  0.00    +0.000 C 
BRANCH  26  29
ATOM     27  O   UNL     1       2.093  -6.423   0.000  0.00  0.00    +0.000 OA
ATOM     28  O   UNL     1       3.522  -7.248   0.000  0.00  0.00    +0.000 OA
ATOM     29  C   UNL     1       3.522  -4.773   0.000  0.00  0.00    +0.000 A 
ATOM     30  C   UNL     1       2.808  -5.186   0.000  0.00  0.00    +0.000 A 
ATOM     31  C   UNL     1       4.236  -5.186   0.000  0.00  0.00    +0.000 A 
ATOM     32  C   UNL     1       2.808  -6.011   0.000  0.00  0.00    +0.000 A 
ATOM     33  C   UNL     1       4.236  -6.011   0.000  0.00  0.00    +0.000 A 
ATOM     34  C   UNL     1       3.522  -6.423   0.000  0.00  0.00    +0.000 A 
ENDBRANCH  26  29
ENDBRANCH  24  25
ENDBRANCH  22  24
ENDBRANCH  21  22
ENDBRANCH  20  21
ENDBRANCH  11  16
ENDBRANCH   4  11
BRANCH   7  35
ATOM     35  O   UNL     1       6.380   2.652   0.000  0.00  0.00    +0.000 OA
BRANCH  35  39
ATOM     36  O   UNL     1       7.094   4.714   0.000  0.00  0.00    +0.000 OA
ATOM     37  O   UNL     1       4.205   4.712   0.000  0.00  0.00    +0.000 OA
ATOM     38  O   UNL     1       5.655   7.247   0.000  0.00  0.00    +0.000 OA
ATOM     39  C   UNL     1       6.380   3.477   0.000  0.00  0.00    +0.000 A 
ATOM     40  C   UNL     1       7.094   3.889   0.000  0.00  0.00    +0.000 A 
ATOM     41  C   UNL     1       5.665   3.889   0.000  0.00  0.00    +0.000 A 
ATOM     42  C   UNL     1       5.665   4.714   0.000  0.00  0.00    +0.000 A 
ATOM     43  C   UNL     1       6.380   5.127   0.000  0.00  0.00    +0.000 A 
ATOM     44  C   UNL     1       4.915   5.133   0.000  0.00  0.00    +0.000 A 
ATOM     45  C   UNL     1       6.393   5.986   0.000  0.00  0.00    +0.000 A 
ATOM     46  C   UNL     1       4.908   5.992   0.000  0.00  0.00    +0.000 A 
ATOM     47  C   UNL     1       5.652   6.421   0.000  0.00  0.00    +0.000 A 
BRANCH  40  49
ATOM     48  O   UNL     1       9.952   2.239   0.000  0.00  0.00    +0.000 OA
ATOM     49  C   UNL     1       7.809   3.477   0.000  0.00  0.00    +0.000 A 
ATOM     50  C   UNL     1       8.523   3.889   0.000  0.00  0.00    +0.000 A 
ATOM     51  C   UNL     1       7.809   2.652   0.000  0.00  0.00    +0.000 A 
ATOM     52  C   UNL     1       9.238   3.477   0.000  0.00  0.00    +0.000 A 
ATOM     53  C   UNL     1       8.523   2.239   0.000  0.00  0.00    +0.000 A 
ATOM     54  C   UNL     1       9.238   2.652   0.000  0.00  0.00    +0.000 A 
BRANCH  52  55
ATOM     55  O   UNL     1       9.952   3.889   0.000  0.00  0.00    +0.000 OA
ATOM     56  C   UNL     1       9.952   4.714   0.000  0.00  0.00    +0.000 C 
ENDBRANCH  52  55
ENDBRANCH  40  49
ENDBRANCH  35  39
ENDBRANCH   7  35
TORSDOF 12
