REMARK  Name = 74978111
REMARK  11 active torsions:
REMARK  status: ('A' for Active; 'I' for Inactive)
REMARK    1  A    between atoms: O_1  and  C_27
REMARK    2  A    between atoms: O_1  and  C_28
REMARK    3  A    between atoms: O_3  and  C_25
REMARK    4  A    between atoms: O_3  and  C_35
REMARK    5  A    between atoms: O_9  and  C_34
REMARK    6  A    between atoms: O_9  and  C_48
REMARK    7  A    between atoms: O_10  and  C_40
REMARK    8  A    between atoms: O_10  and  C_42
REMARK    9  A    between atoms: C_33  and  C_40
REMARK   10  A    between atoms: C_39  and  C_47
REMARK   11  A    between atoms: C_50  and  C_53
REMARK                            x       y       z     vdW  Elec       q    Type
REMARK                         _______ _______ _______ _____ _____    ______ ____
ROOT
ATOM      1  O   UNL     1       7.094   1.414   0.000  0.00  0.00    +0.000 OA
ATOM      2  O   UNL     1       7.094  -1.061   0.000  0.00  0.00    +0.000 OA
ATOM      3  O   UNL     1       5.665  -0.236   0.000  0.00  0.00    +0.000 OA
ATOM      4  C   UNL     1       7.809   0.177   0.000  0.00  0.00    +0.000 C 
ATOM      5  C   UNL     1       7.094  -0.236   0.000  0.00  0.00    +0.000 C 
ATOM      6  C   UNL     1       6.380   0.177   0.000  0.00  0.00    +0.000 C 
ATOM      7  C   UNL     1       6.380   1.002   0.000  0.00  0.00    +0.000 C 
ATOM      8  C   UNL     1       7.809   1.002   0.000  0.00  0.00    +0.000 C 
ENDROOT
BRANCH   4   9
ATOM      9  O   UNL     1       8.523  -0.236   0.000  0.00  0.00    +0.000 OA
BRANCH   9  15
ATOM     10  O   UNL     1       7.809  -1.473   0.000  0.00  0.00    +0.000 OA
ATOM     11  O   UNL     1       9.952  -1.061   0.000  0.00  0.00    +0.000 OA
ATOM     12  O   UNL     1       8.523  -3.536   0.000  0.00  0.00    +0.000 OA
ATOM     13  C   UNL     1       9.238  -2.298   0.000  0.00  0.00    +0.000 C 
ATOM     14  C   UNL     1       9.238  -1.473   0.000  0.00  0.00    +0.000 C 
ATOM     15  C   UNL     1       8.523  -1.061   0.000  0.00  0.00    +0.000 C 
ATOM     16  C   UNL     1       8.523  -2.711   0.000  0.00  0.00    +0.000 C 
ATOM     17  C   UNL     1       7.809  -2.298   0.000  0.00  0.00    +0.000 C 
ATOM     18  C   UNL     1       7.094  -2.711   0.000  0.00  0.00    +0.000 C 
BRANCH  13  19
ATOM     19  O   UNL     1       9.952  -2.711   0.000  0.00  0.00    +0.000 OA
BRANCH  19  24
ATOM     20  O   UNL     1       9.238  -3.948   0.000  0.00  0.00    +0.000 OA
ATOM     21  O   UNL     1      11.381  -3.536   0.000  0.00  0.00    +0.000 OA
ATOM     22  O   UNL     1      11.381  -5.186   0.000  0.00  0.00    +0.000 OA
ATOM     23  O   UNL     1       9.952  -6.011   0.000  0.00  0.00    +0.000 OA
ATOM     24  C   UNL     1       9.952  -3.536   0.000  0.00  0.00    +0.000 C 
ATOM     25  C   UNL     1      10.667  -3.948   0.000  0.00  0.00    +0.000 C 
ATOM     26  C   UNL     1      10.667  -4.773   0.000  0.00  0.00    +0.000 C 
ATOM     27  C   UNL     1       9.952  -5.186   0.000  0.00  0.00    +0.000 C 
ATOM     28  C   UNL     1       9.238  -4.773   0.000  0.00  0.00    +0.000 C 
BRANCH  28  30
ATOM     29  O   UNL     1       7.809  -4.773   0.000  0.00  0.00    +0.000 OA
ATOM     30  C   UNL     1       8.523  -5.186   0.000  0.00  0.00    +0.000 C 
ENDBRANCH  28  30
ENDBRANCH  19  24
ENDBRANCH  13  19
ENDBRANCH   9  15
ENDBRANCH   4   9
BRANCH   8  31
ATOM     31  O   UNL     1       8.523   1.414   0.000  0.00  0.00    +0.000 OA
BRANCH  31  36
ATOM     32  O   UNL     1       9.238   3.477   0.000  0.00  0.00    +0.000 OA
ATOM     33  O   UNL     1       7.094   2.239   0.000  0.00  0.00    +0.000 OA
ATOM     34  O   UNL     1       6.348   3.474   0.000  0.00  0.00    +0.000 OA
ATOM     35  O   UNL     1       7.799   6.009   0.000  0.00  0.00    +0.000 OA
ATOM     36  C   UNL     1       8.523   2.239   0.000  0.00  0.00    +0.000 A 
ATOM     37  C   UNL     1       9.238   2.652   0.000  0.00  0.00    +0.000 A 
ATOM     38  C   UNL     1       7.809   2.652   0.000  0.00  0.00    +0.000 A 
ATOM     39  C   UNL     1       7.809   3.477   0.000  0.00  0.00    +0.000 A 
ATOM     40  C   UNL     1       8.523   3.889   0.000  0.00  0.00    +0.000 A 
ATOM     41  C   UNL     1       7.058   3.895   0.000  0.00  0.00    +0.000 A 
ATOM     42  C   UNL     1       8.536   4.748   0.000  0.00  0.00    +0.000 A 
ATOM     43  C   UNL     1       7.051   4.754   0.000  0.00  0.00    +0.000 A 
ATOM     44  C   UNL     1       7.796   5.184   0.000  0.00  0.00    +0.000 A 
BRANCH  37  46
ATOM     45  O   UNL     1      12.096   1.002   0.000  0.00  0.00    +0.000 OA
ATOM     46  C   UNL     1       9.952   2.239   0.000  0.00  0.00    +0.000 A 
ATOM     47  C   UNL     1      10.667   2.652   0.000  0.00  0.00    +0.000 A 
ATOM     48  C   UNL     1       9.952   1.414   0.000  0.00  0.00    +0.000 A 
ATOM     49  C   UNL     1      11.381   2.239   0.000  0.00  0.00    +0.000 A 
ATOM     50  C   UNL     1      10.667   1.002   0.000  0.00  0.00    +0.000 A 
ATOM     51  C   UNL     1      11.381   1.414   0.000  0.00  0.00    +0.000 A 
ENDBRANCH  37  46
ENDBRANCH  31  36
ENDBRANCH   8  31
BRANCH   7  52
ATOM     52  C   UNL     1       5.665   1.414   0.000  0.00  0.00    +0.000 C 
BRANCH  52  53
ATOM     53  O   UNL     1       4.951   1.002   0.000  0.00  0.00    +0.000 OA
BRANCH  53  58
ATOM     54  O   UNL     1       3.522   1.002   0.000  0.00  0.00    +0.000 OA
ATOM     55  O   UNL     1       4.951   2.652   0.000  0.00  0.00    +0.000 OA
ATOM     56  O   UNL     1       3.522   3.477   0.000  0.00  0.00    +0.000 OA
ATOM     57  O   UNL     1       2.093   2.652   0.000  0.00  0.00    +0.000 OA
ATOM     58  C   UNL     1       4.236   1.414   0.000  0.00  0.00    +0.000 C 
ATOM     59  C   UNL     1       4.236   2.239   0.000  0.00  0.00    +0.000 C 
ATOM     60  C   UNL     1       3.522   2.652   0.000  0.00  0.00    +0.000 C 
ATOM     61  C   UNL     1       2.808   2.239   0.000  0.00  0.00    +0.000 C 
ATOM     62  C   UNL     1       2.808   1.414   0.000  0.00  0.00    +0.000 C 
ATOM     63  C   UNL     1       2.093   1.002   0.000  0.00  0.00    +0.000 C 
ENDBRANCH  53  58
ENDBRANCH  52  53
ENDBRANCH   7  52
TORSDOF 11
