REMARK  Name = 131833827
REMARK  11 active torsions:
REMARK  status: ('A' for Active; 'I' for Inactive)
REMARK    1  A    between atoms: O_3  and  C_25
REMARK    2  A    between atoms: O_3  and  C_32
REMARK    3  A    between atoms: O_7  and  C_27
REMARK    4  A    between atoms: O_7  and  C_34
REMARK    5  A    between atoms: O_8  and  C_31
REMARK    6  A    between atoms: O_8  and  C_36
REMARK    7  A    between atoms: C_23  and  C_27
REMARK    8  A    between atoms: C_30  and  C_33
REMARK    9  A    between atoms: C_34  and  C_35
REMARK   10  A    between atoms: C_35  and  C_36
REMARK   11  A    between atoms: C_37  and  C_41
REMARK                            x       y       z     vdW  Elec       q    Type
REMARK                         _______ _______ _______ _____ _____    ______ ____
ROOT
ATOM      1  O   UNL     1       9.952  -1.061   0.000  0.00  0.00    +0.000 OA
ATOM      2  O   UNL     1       8.523  -2.711   0.000  0.00  0.00    +0.000 OA
ATOM      3  O   UNL     1       9.952  -3.536   0.000  0.00  0.00    +0.000 OA
ATOM      4  O   UNL     1      11.381  -2.711   0.000  0.00  0.00    +0.000 OA
ATOM      5  C   UNL     1       9.238  -2.298   0.000  0.00  0.00    +0.000 C 
ATOM      6  C   UNL     1       9.952  -2.711   0.000  0.00  0.00    +0.000 C 
ATOM      7  C   UNL     1       9.238  -1.473   0.000  0.00  0.00    +0.000 C 
ATOM      8  C   UNL     1      10.667  -2.298   0.000  0.00  0.00    +0.000 C 
ATOM      9  C   UNL     1      10.667  -1.473   0.000  0.00  0.00    +0.000 C 
ENDROOT
BRANCH   9  10
ATOM     10  O   UNL     1      11.381  -1.061   0.000  0.00  0.00    +0.000 OA
BRANCH  10  15
ATOM     11  O   UNL     1      12.096   1.002   0.000  0.00  0.00    +0.000 OA
ATOM     12  O   UNL     1       9.952  -0.236   0.000  0.00  0.00    +0.000 OA
ATOM     13  O   UNL     1       9.206   0.999   0.000  0.00  0.00    +0.000 OA
ATOM     14  O   UNL     1      10.657   3.534   0.000  0.00  0.00    +0.000 OA
ATOM     15  C   UNL     1      11.381  -0.236   0.000  0.00  0.00    +0.000 A 
ATOM     16  C   UNL     1      12.096   0.177   0.000  0.00  0.00    +0.000 A 
ATOM     17  C   UNL     1      10.667   0.177   0.000  0.00  0.00    +0.000 A 
ATOM     18  C   UNL     1      10.667   1.002   0.000  0.00  0.00    +0.000 A 
ATOM     19  C   UNL     1      11.381   1.414   0.000  0.00  0.00    +0.000 A 
ATOM     20  C   UNL     1       9.916   1.420   0.000  0.00  0.00    +0.000 A 
ATOM     21  C   UNL     1      11.394   2.273   0.000  0.00  0.00    +0.000 A 
ATOM     22  C   UNL     1       9.909   2.279   0.000  0.00  0.00    +0.000 A 
ATOM     23  C   UNL     1      10.653   2.709   0.000  0.00  0.00    +0.000 A 
BRANCH  16  25
ATOM     24  O   UNL     1      14.954  -1.473   0.000  0.00  0.00    +0.000 OA
ATOM     25  C   UNL     1      12.810  -0.236   0.000  0.00  0.00    +0.000 A 
ATOM     26  C   UNL     1      12.810  -1.061   0.000  0.00  0.00    +0.000 A 
ATOM     27  C   UNL     1      13.524   0.177   0.000  0.00  0.00    +0.000 A 
ATOM     28  C   UNL     1      13.524  -1.473   0.000  0.00  0.00    +0.000 A 
ATOM     29  C   UNL     1      14.239  -0.236   0.000  0.00  0.00    +0.000 A 
ATOM     30  C   UNL     1      14.239  -1.061   0.000  0.00  0.00    +0.000 A 
ENDBRANCH  16  25
ENDBRANCH  10  15
ENDBRANCH   9  10
BRANCH   7  31
ATOM     31  C   UNL     1       8.523  -1.061   0.000  0.00  0.00    +0.000 C 
BRANCH  31  32
ATOM     32  O   UNL     1       7.809  -1.473   0.000  0.00  0.00    +0.000 OA
BRANCH  32  34
ATOM     33  O   UNL     1       7.094  -0.236   0.000  0.00  0.00    +0.000 OA
ATOM     34  C   UNL     1       7.094  -1.061   0.000  0.00  0.00    +0.000 C 
BRANCH  34  35
ATOM     35  C   UNL     1       6.380  -1.473   0.000  0.00  0.00    +0.000 C 
BRANCH  35  37
ATOM     36  O   UNL     1       5.665  -0.236   0.000  0.00  0.00    +0.000 OA
ATOM     37  C   UNL     1       5.665  -1.061   0.000  0.00  0.00    +0.000 C 
BRANCH  37  38
ATOM     38  O   UNL     1       4.951  -1.473   0.000  0.00  0.00    +0.000 OA
BRANCH  38  47
ATOM     39  O   UNL     1       4.236  -0.236   0.000  0.00  0.00    +0.000 OA
ATOM     40  O   UNL     1       2.093  -1.473   0.000  0.00  0.00    +0.000 OA
ATOM     41  O   UNL     1       2.093   0.177   0.000  0.00  0.00    +0.000 OA
ATOM     42  O   UNL     1       3.522  -2.298   0.000  0.00  0.00    +0.000 OA
ATOM     43  C   UNL     1       2.808  -1.061   0.000  0.00  0.00    +0.000 C 
ATOM     44  C   UNL     1       2.808  -0.236   0.000  0.00  0.00    +0.000 C 
ATOM     45  C   UNL     1       3.522  -1.473   0.000  0.00  0.00    +0.000 C 
ATOM     46  C   UNL     1       3.522   0.177   0.000  0.00  0.00    +0.000 C 
ATOM     47  C   UNL     1       4.236  -1.061   0.000  0.00  0.00    +0.000 C 
BRANCH  46  50
ATOM     48  O   UNL     1       2.808   1.414   0.000  0.00  0.00    +0.000 OA
ATOM     49  O   UNL     1       4.236   1.414   0.000  0.00  0.00    +0.000 OA
ATOM     50  C   UNL     1       3.522   1.002   0.000  0.00  0.00    +0.000 C 
ENDBRANCH  46  50
ENDBRANCH  38  47
ENDBRANCH  37  38
ENDBRANCH  35  37
ENDBRANCH  34  35
ENDBRANCH  32  34
ENDBRANCH  31  32
ENDBRANCH   7  31
TORSDOF 11
