REMARK  Name = 44257188
REMARK  3 active torsions:
REMARK  status: ('A' for Active; 'I' for Inactive)
REMARK    1  A    between atoms: O_2  and  C_11
REMARK    2  A    between atoms: O_2  and  C_18
REMARK    3  A    between atoms: C_16  and  C_20
REMARK                            x       y       z     vdW  Elec       q    Type
REMARK                         _______ _______ _______ _____ _____    ______ ____
ROOT
ATOM      1  O   UNL     1       6.403  -1.714   0.000  0.00  0.00    +0.000 OA
ATOM      2  O   UNL     1       3.522  -1.685   0.000  0.00  0.00    +0.000 OA
ATOM      3  C   UNL     1       7.150  -0.431   0.000  0.00  0.00    +0.000 C 
ATOM      4  C   UNL     1       6.403  -0.007   0.000  0.00  0.00    +0.000 C 
ATOM      5  C   UNL     1       7.150  -1.290   0.000  0.00  0.00    +0.000 C 
ATOM      6  C   UNL     1       5.665  -0.448   0.000  0.00  0.00    +0.000 A 
ATOM      7  C   UNL     1       4.951  -0.035   0.000  0.00  0.00    +0.000 A 
ATOM      8  C   UNL     1       5.665  -1.273   0.000  0.00  0.00    +0.000 A 
ATOM      9  C   UNL     1       4.236  -0.448   0.000  0.00  0.00    +0.000 A 
ATOM     10  C   UNL     1       4.951  -1.685   0.000  0.00  0.00    +0.000 A 
ATOM     11  C   UNL     1       4.236  -1.273   0.000  0.00  0.00    +0.000 A 
ENDROOT
BRANCH   5  13
ATOM     12  O   UNL     1      10.002  -2.951   0.000  0.00  0.00    +0.000 OA
ATOM     13  C   UNL     1       7.863  -1.705   0.000  0.00  0.00    +0.000 A 
ATOM     14  C   UNL     1       8.579  -1.296   0.000  0.00  0.00    +0.000 A 
ATOM     15  C   UNL     1       7.860  -2.530   0.000  0.00  0.00    +0.000 A 
ATOM     16  C   UNL     1       9.292  -1.711   0.000  0.00  0.00    +0.000 A 
ATOM     17  C   UNL     1       8.573  -2.946   0.000  0.00  0.00    +0.000 A 
ATOM     18  C   UNL     1       9.289  -2.536   0.000  0.00  0.00    +0.000 A 
ENDBRANCH   5  13
BRANCH   7  19
ATOM     19  O   UNL     1       4.951   0.790   0.000  0.00  0.00    +0.000 OA
BRANCH  19  26
ATOM     20  O   UNL     1       4.236   2.027   0.000  0.00  0.00    +0.000 OA
ATOM     21  O   UNL     1       3.522  -0.035   0.000  0.00  0.00    +0.000 OA
ATOM     22  O   UNL     1       2.093   0.790   0.000  0.00  0.00    +0.000 OA
ATOM     23  O   UNL     1       2.093   2.440   0.000  0.00  0.00    +0.000 OA
ATOM     24  C   UNL     1       3.522   0.790   0.000  0.00  0.00    +0.000 C 
ATOM     25  C   UNL     1       2.808   1.202   0.000  0.00  0.00    +0.000 C 
ATOM     26  C   UNL     1       4.236   1.202   0.000  0.00  0.00    +0.000 C 
ATOM     27  C   UNL     1       2.808   2.027   0.000  0.00  0.00    +0.000 C 
ATOM     28  C   UNL     1       3.522   2.440   0.000  0.00  0.00    +0.000 C 
ENDBRANCH  19  26
ENDBRANCH   7  19
TORSDOF 3
