REMARK  Name = 44259384
REMARK  6 active torsions:
REMARK  status: ('A' for Active; 'I' for Inactive)
REMARK    1  A    between atoms: O_2  and  C_20
REMARK    2  A    between atoms: O_2  and  C_27
REMARK    3  A    between atoms: O_7  and  C_24
REMARK    4  A    between atoms: O_7  and  C_28
REMARK    5  A    between atoms: O_14  and  C_39
REMARK    6  A    between atoms: C_34  and  C_36
REMARK                            x       y       z     vdW  Elec       q    Type
REMARK                         _______ _______ _______ _____ _____    ______ ____
ROOT
ATOM      1  O   UNL     1       6.399   0.227   0.000  0.00  0.00    +0.000 OA
ATOM      2  O   UNL     1       3.510   0.241   0.000  0.00  0.00    +0.000 OA
ATOM      3  O   UNL     1       4.261   1.473   0.000  0.00  0.00    +0.000 OA
ATOM      4  C   UNL     1       4.951  -1.474   0.000  0.00  0.00    +0.000 A 
ATOM      5  C   UNL     1       5.690   1.467   0.000  0.00  0.00    +0.000 A 
ATOM      6  C   UNL     1       4.971   0.233   0.000  0.00  0.00    +0.000 A 
ATOM      7  C   UNL     1       5.684  -0.183   0.000  0.00  0.00    +0.000 A 
ATOM      8  C   UNL     1       5.693  -1.042   0.000  0.00  0.00    +0.000 A 
ATOM      9  C   UNL     1       4.208  -1.042   0.000  0.00  0.00    +0.000 A 
ATOM     10  C   UNL     1       4.974   1.058   0.000  0.00  0.00    +0.000 A 
ATOM     11  C   UNL     1       6.403   1.052   0.000  0.00  0.00    +0.000 A 
ATOM     12  C   UNL     1       4.218  -0.183   0.000  0.00  0.00    +0.000 A 
ENDROOT
BRANCH  11  14
ATOM     13  O   UNL     1       9.267   2.691   0.000  0.00  0.00    +0.000 OA
ATOM     14  C   UNL     1       7.119   1.462   0.000  0.00  0.00    +0.000 A 
ATOM     15  C   UNL     1       7.832   1.047   0.000  0.00  0.00    +0.000 A 
ATOM     16  C   UNL     1       7.122   2.287   0.000  0.00  0.00    +0.000 A 
ATOM     17  C   UNL     1       8.548   1.456   0.000  0.00  0.00    +0.000 A 
ATOM     18  C   UNL     1       7.838   2.696   0.000  0.00  0.00    +0.000 A 
ATOM     19  C   UNL     1       8.551   2.281   0.000  0.00  0.00    +0.000 A 
BRANCH  17  20
ATOM     20  O   UNL     1       9.261   1.041   0.000  0.00  0.00    +0.000 OA
ATOM     21  C   UNL     1       9.977   1.451   0.000  0.00  0.00    +0.000 C 
ENDBRANCH  17  20
ENDBRANCH  11  14
BRANCH   4  22
ATOM     22  O   UNL     1       4.951  -2.300   0.000  0.00  0.00    +0.000 OA
BRANCH  22  31
ATOM     23  O   UNL     1       3.522  -2.300   0.000  0.00  0.00    +0.000 OA
ATOM     24  O   UNL     1       3.522  -4.774   0.000  0.00  0.00    +0.000 OA
ATOM     25  O   UNL     1       2.093  -3.950   0.000  0.00  0.00    +0.000 OA
ATOM     26  O   UNL     1       4.951  -3.950   0.000  0.00  0.00    +0.000 OA
ATOM     27  C   UNL     1       3.522  -3.950   0.000  0.00  0.00    +0.000 C 
ATOM     28  C   UNL     1       2.808  -3.537   0.000  0.00  0.00    +0.000 C 
ATOM     29  C   UNL     1       4.236  -3.537   0.000  0.00  0.00    +0.000 C 
ATOM     30  C   UNL     1       2.808  -2.712   0.000  0.00  0.00    +0.000 C 
ATOM     31  C   UNL     1       4.236  -2.712   0.000  0.00  0.00    +0.000 C 
ATOM     32  C   UNL     1       2.093  -2.300   0.000  0.00  0.00    +0.000 C 
ENDBRANCH  22  31
ENDBRANCH   4  22
BRANCH   5  33
ATOM     33  O   UNL     1       5.693   2.292   0.000  0.00  0.00    +0.000 OA
BRANCH  33  41
ATOM     34  O   UNL     1       4.264   2.298   0.000  0.00  0.00    +0.000 OA
ATOM     35  O   UNL     1       4.274   4.773   0.000  0.00  0.00    +0.000 OA
ATOM     36  O   UNL     1       5.699   3.942   0.000  0.00  0.00    +0.000 OA
ATOM     37  O   UNL     1       2.841   3.953   0.000  0.00  0.00    +0.000 OA
ATOM     38  C   UNL     1       4.270   3.948   0.000  0.00  0.00    +0.000 C 
ATOM     39  C   UNL     1       4.983   3.533   0.000  0.00  0.00    +0.000 C 
ATOM     40  C   UNL     1       3.554   3.538   0.000  0.00  0.00    +0.000 C 
ATOM     41  C   UNL     1       4.980   2.708   0.000  0.00  0.00    +0.000 C 
ATOM     42  C   UNL     1       3.551   2.713   0.000  0.00  0.00    +0.000 C 
ENDBRANCH  33  41
ENDBRANCH   5  33
TORSDOF 6
