REMARK  Name = 131833497
REMARK  5 active torsions:
REMARK  status: ('A' for Active; 'I' for Inactive)
REMARK    1  A    between atoms: S_1  and  O_6
REMARK    2  A    between atoms: O_6  and  C_20
REMARK    3  A    between atoms: C_17  and  C_19
REMARK    4  A    between atoms: C_18  and  C_20
REMARK    5  A    between atoms: C_27  and  C_29
REMARK                            x       y       z     vdW  Elec       q    Type
REMARK                         _______ _______ _______ _____ _____    ______ ____
ROOT
ATOM      1  O   UNL     1       7.809   1.121   0.000  0.00  0.00    +0.000 OA
ATOM      2  O   UNL     1       6.380  -1.354   0.000  0.00  0.00    +0.000 OA
ATOM      3  O   UNL     1       9.261  -1.383   0.000  0.00  0.00    +0.000 OA
ATOM      4  O   UNL     1       9.251   1.149   0.000  0.00  0.00    +0.000 OA
ATOM      5  C   UNL     1       7.094  -0.117   0.000  0.00  0.00    +0.000 A 
ATOM      6  C   UNL     1       7.809   0.296   0.000  0.00  0.00    +0.000 A 
ATOM      7  C   UNL     1       7.094  -0.942   0.000  0.00  0.00    +0.000 A 
ATOM      8  C   UNL     1       8.523  -0.117   0.000  0.00  0.00    +0.000 A 
ATOM      9  C   UNL     1       7.809  -1.354   0.000  0.00  0.00    +0.000 A 
ATOM     10  C   UNL     1       8.523  -0.942   0.000  0.00  0.00    +0.000 A 
ATOM     11  C   UNL     1       9.261   0.325   0.000  0.00  0.00    +0.000 A 
ATOM     12  C   UNL     1      10.008  -0.959   0.000  0.00  0.00    +0.000 A 
ATOM     13  C   UNL     1      10.008  -0.099   0.000  0.00  0.00    +0.000 A 
ENDROOT
BRANCH   5  21
ATOM     14  O   UNL     1       5.665  -0.117   0.000  0.00  0.00    +0.000 OA
ATOM     15  O   UNL     1       5.665   2.358   0.000  0.00  0.00    +0.000 OA
ATOM     16  O   UNL     1       7.094   1.533   0.000  0.00  0.00    +0.000 OA
ATOM     17  O   UNL     1       4.236   1.533   0.000  0.00  0.00    +0.000 OA
ATOM     18  C   UNL     1       5.665   1.533   0.000  0.00  0.00    +0.000 C 
ATOM     19  C   UNL     1       6.380   1.121   0.000  0.00  0.00    +0.000 C 
ATOM     20  C   UNL     1       4.951   1.121   0.000  0.00  0.00    +0.000 C 
ATOM     21  C   UNL     1       6.380   0.296   0.000  0.00  0.00    +0.000 C 
ATOM     22  C   UNL     1       4.951   0.296   0.000  0.00  0.00    +0.000 C 
BRANCH  22  23
ATOM     23  C   UNL     1       4.236  -0.117   0.000  0.00  0.00    +0.000 C 
BRANCH  23  24
ATOM     24  O   UNL     1       3.522   0.296   0.000  0.00  0.00    +0.000 OA
BRANCH  24  25
ATOM     25  S   UNL     1       2.808  -0.117   0.000  0.00  0.00    +0.000 S 
ATOM     26  O   UNL     1       2.093  -0.529   0.000  0.00  0.00    +0.000 OA
ATOM     27  O   UNL     1       2.395   0.598   0.000  0.00  0.00    +0.000 OA
ATOM     28  O   UNL     1       3.220  -0.831   0.000  0.00  0.00    +0.000 OA
ENDBRANCH  24  25
ENDBRANCH  23  24
ENDBRANCH  22  23
ENDBRANCH   5  21
BRANCH  12  29
ATOM     29  C   UNL     1      10.721  -1.374   0.000  0.00  0.00    +0.000 A 
ATOM     30  C   UNL     1      11.437  -0.964   0.000  0.00  0.00    +0.000 A 
ATOM     31  C   UNL     1      10.718  -2.199   0.000  0.00  0.00    +0.000 A 
ATOM     32  C   UNL     1      12.150  -1.379   0.000  0.00  0.00    +0.000 A 
ATOM     33  C   UNL     1      11.431  -2.614   0.000  0.00  0.00    +0.000 A 
ATOM     34  C   UNL     1      12.147  -2.204   0.000  0.00  0.00    +0.000 A 
ENDBRANCH  12  29
TORSDOF 5
