REMARK  Name = 44258976
REMARK  6 active torsions:
REMARK  status: ('A' for Active; 'I' for Inactive)
REMARK    1  A    between atoms: O_1  and  C_15
REMARK    2  A    between atoms: O_1  and  C_18
REMARK    3  A    between atoms: O_4  and  C_19
REMARK    4  A    between atoms: O_4  and  C_26
REMARK    5  A    between atoms: C_17  and  C_24
REMARK    6  A    between atoms: C_27  and  C_30
REMARK                            x       y       z     vdW  Elec       q    Type
REMARK                         _______ _______ _______ _____ _____    ______ ____
ROOT
ATOM      1  O   UNL     1       6.403  -0.164   0.000  0.00  0.00    +0.000 OA
ENDROOT
BRANCH   1   6
ATOM      2  O   UNL     1       8.414   0.685   0.000  0.00  0.00    +0.000 OA
ATOM      3  O   UNL     1       6.060   1.450   0.000  0.00  0.00    +0.000 OA
ATOM      4  O   UNL     1       6.479   2.831   0.000  0.00  0.00    +0.000 OA
ATOM      5  O   UNL     1       9.333   3.449   0.000  0.00  0.00    +0.000 OA
ATOM      6  C   UNL     1       7.016   0.388   0.000  0.00  0.00    +0.000 A 
ATOM      7  C   UNL     1       7.801   0.133   0.000  0.00  0.00    +0.000 A 
ATOM      8  C   UNL     1       6.844   1.195   0.000  0.00  0.00    +0.000 A 
ATOM      9  C   UNL     1       7.458   1.747   0.000  0.00  0.00    +0.000 A 
ATOM     10  C   UNL     1       8.242   1.492   0.000  0.00  0.00    +0.000 A 
ATOM     11  C   UNL     1       7.266   2.585   0.000  0.00  0.00    +0.000 A 
ATOM     12  C   UNL     1       8.890   2.057   0.000  0.00  0.00    +0.000 A 
ATOM     13  C   UNL     1       7.900   3.165   0.000  0.00  0.00    +0.000 A 
ATOM     14  C   UNL     1       8.717   2.899   0.000  0.00  0.00    +0.000 A 
BRANCH   7  16
ATOM     15  O   UNL     1       8.487  -3.095   0.000  0.00  0.00    +0.000 OA
ATOM     16  C   UNL     1       7.972  -0.674   0.000  0.00  0.00    +0.000 A 
ATOM     17  C   UNL     1       8.757  -0.929   0.000  0.00  0.00    +0.000 A 
ATOM     18  C   UNL     1       7.359  -1.226   0.000  0.00  0.00    +0.000 A 
ATOM     19  C   UNL     1       8.928  -1.736   0.000  0.00  0.00    +0.000 A 
ATOM     20  C   UNL     1       7.531  -2.033   0.000  0.00  0.00    +0.000 A 
ATOM     21  C   UNL     1       8.315  -2.288   0.000  0.00  0.00    +0.000 A 
ENDBRANCH   7  16
ENDBRANCH   1   6
BRANCH   1  27
ATOM     22  O   UNL     1       5.363   0.876   0.000  0.00  0.00    +0.000 OA
ATOM     23  O   UNL     1       3.499  -0.164   0.000  0.00  0.00    +0.000 OA
ATOM     24  C   UNL     1       4.951  -0.394   0.000  0.00  0.00    +0.000 C 
ATOM     25  C   UNL     1       4.283   0.091   0.000  0.00  0.00    +0.000 C 
ATOM     26  C   UNL     1       4.538   0.876   0.000  0.00  0.00    +0.000 C 
ATOM     27  C   UNL     1       5.618   0.091   0.000  0.00  0.00    +0.000 C 
BRANCH  26  29
ATOM     28  O   UNL     1       4.389   2.297   0.000  0.00  0.00    +0.000 OA
ATOM     29  C   UNL     1       4.053   1.543   0.000  0.00  0.00    +0.000 C 
ENDBRANCH  26  29
BRANCH  24  30
ATOM     30  O   UNL     1       4.951  -1.219   0.000  0.00  0.00    +0.000 OA
BRANCH  30  35
ATOM     31  O   UNL     1       3.522  -1.219   0.000  0.00  0.00    +0.000 OA
ATOM     32  O   UNL     1       4.951  -2.869   0.000  0.00  0.00    +0.000 OA
ATOM     33  O   UNL     1       3.522  -3.694   0.000  0.00  0.00    +0.000 OA
ATOM     34  O   UNL     1       2.093  -2.869   0.000  0.00  0.00    +0.000 OA
ATOM     35  C   UNL     1       4.236  -1.631   0.000  0.00  0.00    +0.000 C 
ATOM     36  C   UNL     1       4.236  -2.456   0.000  0.00  0.00    +0.000 C 
ATOM     37  C   UNL     1       3.522  -2.869   0.000  0.00  0.00    +0.000 C 
ATOM     38  C   UNL     1       2.808  -2.456   0.000  0.00  0.00    +0.000 C 
ATOM     39  C   UNL     1       2.808  -1.631   0.000  0.00  0.00    +0.000 C 
ATOM     40  C   UNL     1       2.093  -1.219   0.000  0.00  0.00    +0.000 C 
ENDBRANCH  30  35
ENDBRANCH  24  30
ENDBRANCH   1  27
TORSDOF 6
