REMARK  Name = 44257722
REMARK  4 active torsions:
REMARK  status: ('A' for Active; 'I' for Inactive)
REMARK    1  A    between atoms: O_1  and  C_14
REMARK    2  A    between atoms: O_1  and  C_17
REMARK    3  A    between atoms: C_19  and  C_24
REMARK    4  A    between atoms: C_33  and  C_34
REMARK                            x       y       z     vdW  Elec       q    Type
REMARK                         _______ _______ _______ _____ _____    ______ ____
ROOT
ATOM      1  O   UNL     1       6.380  -0.236   0.000  0.00  0.00    +0.000 OA
ATOM      2  O   UNL     1       3.522  -0.236   0.000  0.00  0.00    +0.000 OA
ATOM      3  O   UNL     1       4.938   2.274   0.000  0.00  0.00    +0.000 OA
ATOM      4  O   UNL     1       7.126   0.999   0.000  0.00  0.00    +0.000 OA
ATOM      5  C   UNL     1       4.951  -0.236   0.000  0.00  0.00    +0.000 A 
ATOM      6  C   UNL     1       5.665   0.177   0.000  0.00  0.00    +0.000 A 
ATOM      7  C   UNL     1       4.236   0.177   0.000  0.00  0.00    +0.000 A 
ATOM      8  C   UNL     1       5.665   1.002   0.000  0.00  0.00    +0.000 A 
ATOM      9  C   UNL     1       4.236   1.002   0.000  0.00  0.00    +0.000 A 
ATOM     10  C   UNL     1       4.951   1.414   0.000  0.00  0.00    +0.000 A 
ATOM     11  C   UNL     1       6.416   1.420   0.000  0.00  0.00    +0.000 A 
ATOM     12  C   UNL     1       6.423   2.279   0.000  0.00  0.00    +0.000 A 
ATOM     13  C   UNL     1       5.678   2.709   0.000  0.00  0.00    +0.000 A 
ENDROOT
BRANCH   5  20
ATOM     14  O   UNL     1       5.665  -1.473   0.000  0.00  0.00    +0.000 OA
ATOM     15  O   UNL     1       3.522  -2.711   0.000  0.00  0.00    +0.000 OA
ATOM     16  O   UNL     1       3.522  -1.061   0.000  0.00  0.00    +0.000 OA
ATOM     17  C   UNL     1       4.951  -2.711   0.000  0.00  0.00    +0.000 C 
ATOM     18  C   UNL     1       4.236  -2.298   0.000  0.00  0.00    +0.000 C 
ATOM     19  C   UNL     1       4.236  -1.473   0.000  0.00  0.00    +0.000 C 
ATOM     20  C   UNL     1       4.951  -1.061   0.000  0.00  0.00    +0.000 C 
ATOM     21  C   UNL     1       5.665  -2.298   0.000  0.00  0.00    +0.000 C 
BRANCH  17  22
ATOM     22  O   UNL     1       4.951  -3.536   0.000  0.00  0.00    +0.000 OA
BRANCH  22  27
ATOM     23  O   UNL     1       3.522  -3.536   0.000  0.00  0.00    +0.000 OA
ATOM     24  O   UNL     1       4.951  -5.186   0.000  0.00  0.00    +0.000 OA
ATOM     25  O   UNL     1       3.522  -6.011   0.000  0.00  0.00    +0.000 OA
ATOM     26  O   UNL     1       2.093  -5.186   0.000  0.00  0.00    +0.000 OA
ATOM     27  C   UNL     1       4.236  -3.948   0.000  0.00  0.00    +0.000 C 
ATOM     28  C   UNL     1       4.236  -4.773   0.000  0.00  0.00    +0.000 C 
ATOM     29  C   UNL     1       3.522  -5.186   0.000  0.00  0.00    +0.000 C 
ATOM     30  C   UNL     1       2.808  -4.773   0.000  0.00  0.00    +0.000 C 
ATOM     31  C   UNL     1       2.808  -3.948   0.000  0.00  0.00    +0.000 C 
ATOM     32  C   UNL     1       2.093  -3.536   0.000  0.00  0.00    +0.000 C 
ENDBRANCH  22  27
ENDBRANCH  17  22
ENDBRANCH   5  20
BRANCH  13  34
ATOM     33  O   UNL     1       5.666   6.009   0.000  0.00  0.00    +0.000 OA
ATOM     34  C   UNL     1       5.675   3.534   0.000  0.00  0.00    +0.000 A 
ATOM     35  C   UNL     1       4.959   3.944   0.000  0.00  0.00    +0.000 A 
ATOM     36  C   UNL     1       6.388   3.949   0.000  0.00  0.00    +0.000 A 
ATOM     37  C   UNL     1       4.956   4.769   0.000  0.00  0.00    +0.000 A 
ATOM     38  C   UNL     1       6.385   4.774   0.000  0.00  0.00    +0.000 A 
ATOM     39  C   UNL     1       5.669   5.184   0.000  0.00  0.00    +0.000 A 
ENDBRANCH  13  34
TORSDOF 4
