REMARK  Name = 42607983
REMARK  9 active torsions:
REMARK  status: ('A' for Active; 'I' for Inactive)
REMARK    1  A    between atoms: O_1  and  C_20
REMARK    2  A    between atoms: O_1  and  C_25
REMARK    3  A    between atoms: O_4  and  C_28
REMARK    4  A    between atoms: O_4  and  C_31
REMARK    5  A    between atoms: O_6  and  C_24
REMARK    6  A    between atoms: O_6  and  C_38
REMARK    7  A    between atoms: O_19  and  C_52
REMARK    8  A    between atoms: C_23  and  C_28
REMARK    9  A    between atoms: C_44  and  C_47
REMARK                            x       y       z     vdW  Elec       q    Type
REMARK                         _______ _______ _______ _____ _____    ______ ____
ROOT
ATOM      1  O   UNL     1       7.094  -1.542   0.000  0.00  0.00    +0.000 OA
ATOM      2  O   UNL     1       7.094  -4.017   0.000  0.00  0.00    +0.000 OA
ATOM      3  O   UNL     1       5.665  -3.192   0.000  0.00  0.00    +0.000 OA
ATOM      4  C   UNL     1       7.809  -2.780   0.000  0.00  0.00    +0.000 C 
ATOM      5  C   UNL     1       7.094  -3.192   0.000  0.00  0.00    +0.000 C 
ATOM      6  C   UNL     1       6.380  -2.780   0.000  0.00  0.00    +0.000 C 
ATOM      7  C   UNL     1       6.380  -1.955   0.000  0.00  0.00    +0.000 C 
ATOM      8  C   UNL     1       7.809  -1.955   0.000  0.00  0.00    +0.000 C 
ENDROOT
BRANCH   4   9
ATOM      9  O   UNL     1       8.523  -3.192   0.000  0.00  0.00    +0.000 OA
BRANCH   9  14
ATOM     10  O   UNL     1       9.238  -1.955   0.000  0.00  0.00    +0.000 OA
ATOM     11  O   UNL     1       9.952  -4.017   0.000  0.00  0.00    +0.000 OA
ATOM     12  O   UNL     1      11.381  -3.192   0.000  0.00  0.00    +0.000 OA
ATOM     13  O   UNL     1      11.381  -1.542   0.000  0.00  0.00    +0.000 OA
ATOM     14  C   UNL     1       9.238  -2.780   0.000  0.00  0.00    +0.000 C 
ATOM     15  C   UNL     1       9.952  -3.192   0.000  0.00  0.00    +0.000 C 
ATOM     16  C   UNL     1      10.667  -2.780   0.000  0.00  0.00    +0.000 C 
ATOM     17  C   UNL     1      10.667  -1.955   0.000  0.00  0.00    +0.000 C 
ATOM     18  C   UNL     1       9.952  -1.542   0.000  0.00  0.00    +0.000 C 
ATOM     19  C   UNL     1       9.952  -0.717   0.000  0.00  0.00    +0.000 C 
ENDBRANCH   9  14
ENDBRANCH   4   9
BRANCH   8  20
ATOM     20  O   UNL     1       8.523  -1.542   0.000  0.00  0.00    +0.000 OA
BRANCH  20  24
ATOM     21  O   UNL     1       9.972   0.984   0.000  0.00  0.00    +0.000 OA
ATOM     22  O   UNL     1       7.082   0.998   0.000  0.00  0.00    +0.000 OA
ATOM     23  O   UNL     1       7.833   2.230   0.000  0.00  0.00    +0.000 OA
ATOM     24  C   UNL     1       8.523  -0.717   0.000  0.00  0.00    +0.000 A 
ATOM     25  C   UNL     1       9.266  -0.285   0.000  0.00  0.00    +0.000 A 
ATOM     26  C   UNL     1       7.781  -0.285   0.000  0.00  0.00    +0.000 A 
ATOM     27  C   UNL     1       9.256   0.574   0.000  0.00  0.00    +0.000 A 
ATOM     28  C   UNL     1       8.543   0.990   0.000  0.00  0.00    +0.000 A 
ATOM     29  C   UNL     1       7.791   0.574   0.000  0.00  0.00    +0.000 A 
ATOM     30  C   UNL     1       9.975   1.809   0.000  0.00  0.00    +0.000 C 
ATOM     31  C   UNL     1       9.262   2.224   0.000  0.00  0.00    +0.000 C 
ATOM     32  C   UNL     1       8.546   1.815   0.000  0.00  0.00    +0.000 C 
BRANCH  30  34
ATOM     33  O   UNL     1      12.833   1.798   0.000  0.00  0.00    +0.000 OA
ATOM     34  C   UNL     1      10.691   2.219   0.000  0.00  0.00    +0.000 A 
ATOM     35  C   UNL     1      11.404   1.804   0.000  0.00  0.00    +0.000 A 
ATOM     36  C   UNL     1      10.694   3.044   0.000  0.00  0.00    +0.000 A 
ATOM     37  C   UNL     1      12.120   2.213   0.000  0.00  0.00    +0.000 A 
ATOM     38  C   UNL     1      11.410   3.454   0.000  0.00  0.00    +0.000 A 
ATOM     39  C   UNL     1      12.123   3.038   0.000  0.00  0.00    +0.000 A 
BRANCH  39  40
ATOM     40  O   UNL     1      12.839   3.448   0.000  0.00  0.00    +0.000 OA
ATOM     41  C   UNL     1      12.842   4.273   0.000  0.00  0.00    +0.000 C 
ENDBRANCH  39  40
ENDBRANCH  30  34
ENDBRANCH  20  24
ENDBRANCH   8  20
BRANCH   7  42
ATOM     42  C   UNL     1       5.665  -1.542   0.000  0.00  0.00    +0.000 C 
BRANCH  42  43
ATOM     43  O   UNL     1       4.951  -1.955   0.000  0.00  0.00    +0.000 OA
BRANCH  43  48
ATOM     44  O   UNL     1       3.522  -1.955   0.000  0.00  0.00    +0.000 OA
ATOM     45  O   UNL     1       4.951  -0.305   0.000  0.00  0.00    +0.000 OA
ATOM     46  O   UNL     1       3.522   0.520   0.000  0.00  0.00    +0.000 OA
ATOM     47  O   UNL     1       2.093  -0.305   0.000  0.00  0.00    +0.000 OA
ATOM     48  C   UNL     1       4.236  -1.542   0.000  0.00  0.00    +0.000 C 
ATOM     49  C   UNL     1       4.236  -0.717   0.000  0.00  0.00    +0.000 C 
ATOM     50  C   UNL     1       3.522  -0.305   0.000  0.00  0.00    +0.000 C 
ATOM     51  C   UNL     1       2.808  -0.717   0.000  0.00  0.00    +0.000 C 
ATOM     52  C   UNL     1       2.808  -1.542   0.000  0.00  0.00    +0.000 C 
ATOM     53  C   UNL     1       2.093  -1.955   0.000  0.00  0.00    +0.000 C 
ENDBRANCH  43  48
ENDBRANCH  42  43
ENDBRANCH   7  42
TORSDOF 9
