REMARK  Name = 14777889
REMARK  4 active torsions:
REMARK  status: ('A' for Active; 'I' for Inactive)
REMARK    1  A    between atoms: S_1  and  O_3
REMARK    2  A    between atoms: O_3  and  C_14
REMARK    3  A    between atoms: O_7  and  C_25
REMARK    4  A    between atoms: C_12  and  C_16
REMARK                            x       y       z     vdW  Elec       q    Type
REMARK                         _______ _______ _______ _____ _____    ______ ____
ROOT
ATOM      1  O   UNL     1       5.006  -0.747   0.000  0.00  0.00    +0.000 OA
ATOM      2  O   UNL     1       3.564   1.757   0.000  0.00  0.00    +0.000 OA
ATOM      3  O   UNL     1       5.006   1.728   0.000  0.00  0.00    +0.000 OA
ATOM      4  O   UNL     1       2.094  -0.767   0.000  0.00  0.00    +0.000 OA
ATOM      5  C   UNL     1       4.292   0.491   0.000  0.00  0.00    +0.000 A 
ATOM      6  C   UNL     1       5.721  -0.334   0.000  0.00  0.00    +0.000 A 
ATOM      7  C   UNL     1       4.292  -0.334   0.000  0.00  0.00    +0.000 A 
ATOM      8  C   UNL     1       5.721   0.491   0.000  0.00  0.00    +0.000 A 
ATOM      9  C   UNL     1       5.006   0.903   0.000  0.00  0.00    +0.000 A 
ATOM     10  C   UNL     1       3.554   0.932   0.000  0.00  0.00    +0.000 A 
ATOM     11  C   UNL     1       3.554  -0.775   0.000  0.00  0.00    +0.000 A 
ATOM     12  C   UNL     1       2.807   0.508   0.000  0.00  0.00    +0.000 A 
ATOM     13  C   UNL     1       2.807  -0.351   0.000  0.00  0.00    +0.000 A 
ENDROOT
BRANCH   6  14
ATOM     14  C   UNL     1       6.435  -0.747   0.000  0.00  0.00    +0.000 A 
ATOM     15  C   UNL     1       7.150  -0.334   0.000  0.00  0.00    +0.000 A 
ATOM     16  C   UNL     1       6.435  -1.572   0.000  0.00  0.00    +0.000 A 
ATOM     17  C   UNL     1       7.864  -0.747   0.000  0.00  0.00    +0.000 A 
ATOM     18  C   UNL     1       7.150  -1.984   0.000  0.00  0.00    +0.000 A 
ATOM     19  C   UNL     1       7.864  -1.572   0.000  0.00  0.00    +0.000 A 
BRANCH  19  20
ATOM     20  O   UNL     1       8.579  -1.984   0.000  0.00  0.00    +0.000 OA
ATOM     21  C   UNL     1       8.579  -2.809   0.000  0.00  0.00    +0.000 C 
ENDBRANCH  19  20
ENDBRANCH   6  14
BRANCH   8  22
ATOM     22  O   UNL     1       6.435   0.903   0.000  0.00  0.00    +0.000 OA
BRANCH  22  23
ATOM     23  S   UNL     1       6.435   1.728   0.000  0.00  0.00    +0.000 S 
ATOM     24  O   UNL     1       6.435   2.553   0.000  0.00  0.00    +0.000 OA
ATOM     25  O   UNL     1       7.260   1.728   0.000  0.00  0.00    +0.000 OA
ATOM     26  O   UNL     1       5.610   1.728   0.000  0.00  0.00    +0.000 OA
ENDBRANCH  22  23
ENDBRANCH   8  22
TORSDOF 4
