REMARK  Name = 44259883
REMARK  8 active torsions:
REMARK  status: ('A' for Active; 'I' for Inactive)
REMARK    1  A    between atoms: O_2  and  C_19
REMARK    2  A    between atoms: O_2  and  C_21
REMARK    3  A    between atoms: O_8  and  C_22
REMARK    4  A    between atoms: O_10  and  C_29
REMARK    5  A    between atoms: O_12  and  C_34
REMARK    6  A    between atoms: O_13  and  C_35
REMARK    7  A    between atoms: C_18  and  C_20
REMARK    8  A    between atoms: C_28  and  C_30
REMARK                            x       y       z     vdW  Elec       q    Type
REMARK                         _______ _______ _______ _____ _____    ______ ____
ROOT
ATOM      1  O   UNL     1       7.114   0.774   0.000  0.00  0.00    +0.000 OA
ATOM      2  O   UNL     1       4.225   0.787   0.000  0.00  0.00    +0.000 OA
ATOM      3  O   UNL     1       4.975   2.019   0.000  0.00  0.00    +0.000 OA
ATOM      4  C   UNL     1       5.665  -0.928   0.000  0.00  0.00    +0.000 A 
ATOM      5  C   UNL     1       4.923  -0.495   0.000  0.00  0.00    +0.000 A 
ATOM      6  C   UNL     1       6.408  -0.495   0.000  0.00  0.00    +0.000 A 
ATOM      7  C   UNL     1       6.398   0.364   0.000  0.00  0.00    +0.000 A 
ATOM      8  C   UNL     1       5.685   0.779   0.000  0.00  0.00    +0.000 A 
ATOM      9  C   UNL     1       4.933   0.364   0.000  0.00  0.00    +0.000 A 
ATOM     10  C   UNL     1       5.688   1.604   0.000  0.00  0.00    +0.000 A 
ATOM     11  C   UNL     1       7.117   1.599   0.000  0.00  0.00    +0.000 A 
ATOM     12  C   UNL     1       6.404   2.014   0.000  0.00  0.00    +0.000 A 
ENDROOT
BRANCH  11  14
ATOM     13  O   UNL     1       9.981   3.238   0.000  0.00  0.00    +0.000 OA
ATOM     14  C   UNL     1       7.833   2.009   0.000  0.00  0.00    +0.000 A 
ATOM     15  C   UNL     1       8.546   1.593   0.000  0.00  0.00    +0.000 A 
ATOM     16  C   UNL     1       7.836   2.833   0.000  0.00  0.00    +0.000 A 
ATOM     17  C   UNL     1       8.552   3.243   0.000  0.00  0.00    +0.000 A 
ATOM     18  C   UNL     1       9.262   2.003   0.000  0.00  0.00    +0.000 A 
ATOM     19  C   UNL     1       9.265   2.828   0.000  0.00  0.00    +0.000 A 
BRANCH  17  20
ATOM     20  O   UNL     1       8.556   4.068   0.000  0.00  0.00    +0.000 OA
ATOM     21  C   UNL     1       7.843   4.484   0.000  0.00  0.00    +0.000 C 
ENDBRANCH  17  20
BRANCH  18  22
ATOM     22  O   UNL     1       9.975   1.588   0.000  0.00  0.00    +0.000 OA
ATOM     23  C   UNL     1       9.972   0.763   0.000  0.00  0.00    +0.000 C 
ENDBRANCH  18  22
ENDBRANCH  11  14
BRANCH   5  24
ATOM     24  O   UNL     1       4.205  -0.902   0.000  0.00  0.00    +0.000 OA
ATOM     25  C   UNL     1       3.494  -0.484   0.000  0.00  0.00    +0.000 C 
ENDBRANCH   5  24
BRANCH  12  26
ATOM     26  O   UNL     1       6.407   2.839   0.000  0.00  0.00    +0.000 OA
ATOM     27  C   UNL     1       5.695   3.254   0.000  0.00  0.00    +0.000 C 
ENDBRANCH  12  26
BRANCH   4  28
ATOM     28  O   UNL     1       5.665  -1.753   0.000  0.00  0.00    +0.000 OA
BRANCH  28  37
ATOM     29  O   UNL     1       4.236  -1.753   0.000  0.00  0.00    +0.000 OA
ATOM     30  O   UNL     1       4.236  -4.228   0.000  0.00  0.00    +0.000 OA
ATOM     31  O   UNL     1       2.808  -3.403   0.000  0.00  0.00    +0.000 OA
ATOM     32  O   UNL     1       5.665  -3.403   0.000  0.00  0.00    +0.000 OA
ATOM     33  C   UNL     1       4.236  -3.403   0.000  0.00  0.00    +0.000 C 
ATOM     34  C   UNL     1       3.522  -2.990   0.000  0.00  0.00    +0.000 C 
ATOM     35  C   UNL     1       4.951  -2.990   0.000  0.00  0.00    +0.000 C 
ATOM     36  C   UNL     1       3.522  -2.165   0.000  0.00  0.00    +0.000 C 
ATOM     37  C   UNL     1       4.951  -2.165   0.000  0.00  0.00    +0.000 C 
BRANCH  36  39
ATOM     38  O   UNL     1       2.093  -2.165   0.000  0.00  0.00    +0.000 OA
ATOM     39  C   UNL     1       2.808  -1.753   0.000  0.00  0.00    +0.000 C 
ENDBRANCH  36  39
ENDBRANCH  28  37
ENDBRANCH   4  28
TORSDOF 8
