REMARK  Name = 44257132
REMARK  8 active torsions:
REMARK  status: ('A' for Active; 'I' for Inactive)
REMARK    1  A    between atoms: O_3  and  C_19
REMARK    2  A    between atoms: O_3  and  C_28
REMARK    3  A    between atoms: O_4  and  C_24
REMARK    4  A    between atoms: O_4  and  C_32
REMARK    5  A    between atoms: C_22  and  C_35
REMARK    6  A    between atoms: C_25  and  C_36
REMARK    7  A    between atoms: C_31  and  C_37
REMARK    8  A    between atoms: C_33  and  C_38
REMARK                            x       y       z     vdW  Elec       q    Type
REMARK                         _______ _______ _______ _____ _____    ______ ____
ROOT
ATOM      1  O   UNL     1       7.405   0.645   0.000  0.00  0.00    +0.000 OA
ATOM      2  O   UNL     1       5.635   2.271   0.000  0.00  0.00    +0.000 OA
ATOM      3  C   UNL     1       5.939   0.639   0.000  0.00  0.00    +0.000 A 
ATOM      4  C   UNL     1       5.926   1.498   0.000  0.00  0.00    +0.000 C 
ATOM      5  C   UNL     1       5.225   0.227   0.000  0.00  0.00    +0.000 A 
ATOM      6  C   UNL     1       6.667   1.934   0.000  0.00  0.00    +0.000 C 
ATOM      7  C   UNL     1       6.654   0.227   0.000  0.00  0.00    +0.000 A 
ATOM      8  C   UNL     1       7.411   1.504   0.000  0.00  0.00    +0.000 C 
ATOM      9  C   UNL     1       5.939  -1.011   0.000  0.00  0.00    +0.000 A 
ATOM     10  C   UNL     1       5.225  -0.598   0.000  0.00  0.00    +0.000 A 
ATOM     11  C   UNL     1       6.654  -0.598   0.000  0.00  0.00    +0.000 A 
ATOM     12  C   UNL     1       7.368  -1.011   0.000  0.00  0.00    +0.000 C 
ENDROOT
BRANCH   8  13
ATOM     13  C   UNL     1       8.127   1.914   0.000  0.00  0.00    +0.000 A 
ATOM     14  C   UNL     1       8.131   2.739   0.000  0.00  0.00    +0.000 A 
ATOM     15  C   UNL     1       8.840   1.499   0.000  0.00  0.00    +0.000 A 
ATOM     16  C   UNL     1       8.847   3.149   0.000  0.00  0.00    +0.000 A 
ATOM     17  C   UNL     1       9.556   1.909   0.000  0.00  0.00    +0.000 A 
ATOM     18  C   UNL     1       9.559   2.734   0.000  0.00  0.00    +0.000 A 
ENDBRANCH   8  13
BRANCH  10  20
ATOM     19  O   UNL     1       3.796  -0.598   0.000  0.00  0.00    +0.000 OA
ATOM     20  C   UNL     1       4.511  -1.011   0.000  0.00  0.00    +0.000 C 
ENDBRANCH  10  20
BRANCH   5  21
ATOM     21  O   UNL     1       4.511   0.639   0.000  0.00  0.00    +0.000 OA
BRANCH  21  29
ATOM     22  O   UNL     1       4.262   2.047   0.000  0.00  0.00    +0.000 OA
ATOM     23  O   UNL     1       1.825   1.617   0.000  0.00  0.00    +0.000 OA
ATOM     24  O   UNL     1       2.885   0.353   0.000  0.00  0.00    +0.000 OA
ATOM     25  O   UNL     1       2.389   3.167   0.000  0.00  0.00    +0.000 OA
ATOM     26  C   UNL     1       2.638   1.760   0.000  0.00  0.00    +0.000 C 
ATOM     27  C   UNL     1       3.168   1.128   0.000  0.00  0.00    +0.000 C 
ATOM     28  C   UNL     1       2.920   2.535   0.000  0.00  0.00    +0.000 C 
ATOM     29  C   UNL     1       3.980   1.271   0.000  0.00  0.00    +0.000 C 
ATOM     30  C   UNL     1       3.732   2.679   0.000  0.00  0.00    +0.000 C 
BRANCH  30  32
ATOM     31  O   UNL     1       3.484   4.086   0.000  0.00  0.00    +0.000 OA
ATOM     32  C   UNL     1       4.014   3.454   0.000  0.00  0.00    +0.000 C 
ENDBRANCH  30  32
ENDBRANCH  21  29
ENDBRANCH   5  21
BRANCH   9  33
ATOM     33  O   UNL     1       5.939  -1.836   0.000  0.00  0.00    +0.000 OA
BRANCH  33  41
ATOM     34  O   UNL     1       4.511  -1.836   0.000  0.00  0.00    +0.000 OA
ATOM     35  O   UNL     1       4.511  -4.311   0.000  0.00  0.00    +0.000 OA
ATOM     36  O   UNL     1       5.939  -3.486   0.000  0.00  0.00    +0.000 OA
ATOM     37  O   UNL     1       3.082  -3.486   0.000  0.00  0.00    +0.000 OA
ATOM     38  C   UNL     1       4.511  -3.486   0.000  0.00  0.00    +0.000 C 
ATOM     39  C   UNL     1       5.225  -3.073   0.000  0.00  0.00    +0.000 C 
ATOM     40  C   UNL     1       3.796  -3.073   0.000  0.00  0.00    +0.000 C 
ATOM     41  C   UNL     1       5.225  -2.248   0.000  0.00  0.00    +0.000 C 
ATOM     42  C   UNL     1       3.796  -2.248   0.000  0.00  0.00    +0.000 C 
BRANCH  42  44
ATOM     43  O   UNL     1       2.367  -2.248   0.000  0.00  0.00    +0.000 OA
ATOM     44  C   UNL     1       3.082  -1.836   0.000  0.00  0.00    +0.000 C 
ENDBRANCH  42  44
ENDBRANCH  33  41
ENDBRANCH   9  33
TORSDOF 8
