REMARK  Name = 85202062
REMARK  6 active torsions:
REMARK  status: ('A' for Active; 'I' for Inactive)
REMARK    1  A    between atoms: O_1  and  C_14
REMARK    2  A    between atoms: O_1  and  C_17
REMARK    3  A    between atoms: O_4  and  C_19
REMARK    4  A    between atoms: O_4  and  C_26
REMARK    5  A    between atoms: O_10  and  C_28
REMARK    6  A    between atoms: C_34  and  C_36
REMARK                            x       y       z     vdW  Elec       q    Type
REMARK                         _______ _______ _______ _____ _____    ______ ____
ROOT
ATOM      1  O   UNL     1       4.951  -0.519   0.000  0.00  0.00    +0.000 OA
ENDROOT
BRANCH   1   5
ATOM      2  O   UNL     1       6.380   0.306   0.000  0.00  0.00    +0.000 OA
ATOM      3  O   UNL     1       4.938   2.815   0.000  0.00  0.00    +0.000 OA
ATOM      4  O   UNL     1       7.126   1.540   0.000  0.00  0.00    +0.000 OA
ATOM      5  C   UNL     1       4.951   0.306   0.000  0.00  0.00    +0.000 A 
ATOM      6  C   UNL     1       5.665   0.718   0.000  0.00  0.00    +0.000 A 
ATOM      7  C   UNL     1       4.236   0.718   0.000  0.00  0.00    +0.000 A 
ATOM      8  C   UNL     1       5.665   1.543   0.000  0.00  0.00    +0.000 A 
ATOM      9  C   UNL     1       4.236   1.543   0.000  0.00  0.00    +0.000 A 
ATOM     10  C   UNL     1       4.951   1.956   0.000  0.00  0.00    +0.000 A 
ATOM     11  C   UNL     1       6.416   1.961   0.000  0.00  0.00    +0.000 A 
ATOM     12  C   UNL     1       6.423   2.821   0.000  0.00  0.00    +0.000 A 
ATOM     13  C   UNL     1       5.678   3.250   0.000  0.00  0.00    +0.000 A 
BRANCH  13  14
ATOM     14  C   UNL     1       5.675   4.075   0.000  0.00  0.00    +0.000 A 
ATOM     15  C   UNL     1       4.959   4.485   0.000  0.00  0.00    +0.000 A 
ATOM     16  C   UNL     1       6.388   4.490   0.000  0.00  0.00    +0.000 A 
ATOM     17  C   UNL     1       4.956   5.310   0.000  0.00  0.00    +0.000 A 
ATOM     18  C   UNL     1       6.385   5.316   0.000  0.00  0.00    +0.000 A 
ATOM     19  C   UNL     1       5.669   5.725   0.000  0.00  0.00    +0.000 A 
ENDBRANCH  13  14
BRANCH   7  20
ATOM     20  O   UNL     1       3.522   0.306   0.000  0.00  0.00    +0.000 OA
ATOM     21  C   UNL     1       2.808   0.718   0.000  0.00  0.00    +0.000 C 
ENDBRANCH   7  20
ENDBRANCH   1   5
BRANCH   1  28
ATOM     22  O   UNL     1       3.522  -0.519   0.000  0.00  0.00    +0.000 OA
ATOM     23  O   UNL     1       3.522  -2.994   0.000  0.00  0.00    +0.000 OA
ATOM     24  O   UNL     1       2.093  -2.169   0.000  0.00  0.00    +0.000 OA
ATOM     25  C   UNL     1       4.236  -1.757   0.000  0.00  0.00    +0.000 C 
ATOM     26  C   UNL     1       3.522  -2.169   0.000  0.00  0.00    +0.000 C 
ATOM     27  C   UNL     1       2.808  -1.757   0.000  0.00  0.00    +0.000 C 
ATOM     28  C   UNL     1       4.236  -0.932   0.000  0.00  0.00    +0.000 C 
ATOM     29  C   UNL     1       2.808  -0.932   0.000  0.00  0.00    +0.000 C 
ATOM     30  C   UNL     1       2.093  -0.519   0.000  0.00  0.00    +0.000 C 
BRANCH  25  31
ATOM     31  O   UNL     1       4.951  -2.169   0.000  0.00  0.00    +0.000 OA
BRANCH  31  36
ATOM     32  O   UNL     1       4.236  -3.407   0.000  0.00  0.00    +0.000 OA
ATOM     33  O   UNL     1       6.380  -2.994   0.000  0.00  0.00    +0.000 OA
ATOM     34  O   UNL     1       6.380  -4.644   0.000  0.00  0.00    +0.000 OA
ATOM     35  O   UNL     1       4.951  -5.469   0.000  0.00  0.00    +0.000 OA
ATOM     36  C   UNL     1       4.951  -2.994   0.000  0.00  0.00    +0.000 C 
ATOM     37  C   UNL     1       5.665  -3.407   0.000  0.00  0.00    +0.000 C 
ATOM     38  C   UNL     1       5.665  -4.232   0.000  0.00  0.00    +0.000 C 
ATOM     39  C   UNL     1       4.951  -4.644   0.000  0.00  0.00    +0.000 C 
ATOM     40  C   UNL     1       4.236  -4.232   0.000  0.00  0.00    +0.000 C 
ATOM     41  C   UNL     1       3.522  -4.644   0.000  0.00  0.00    +0.000 C 
ENDBRANCH  31  36
ENDBRANCH  25  31
ENDBRANCH   1  28
TORSDOF 6
