REMARK  Name = 74977934
REMARK  6 active torsions:
REMARK  status: ('A' for Active; 'I' for Inactive)
REMARK    1  A    between atoms: S_1  and  O_12
REMARK    2  A    between atoms: O_3  and  C_21
REMARK    3  A    between atoms: O_3  and  C_23
REMARK    4  A    between atoms: O_12  and  C_35
REMARK    5  A    between atoms: C_20  and  C_22
REMARK    6  A    between atoms: C_30  and  C_32
REMARK                            x       y       z     vdW  Elec       q    Type
REMARK                         _______ _______ _______ _____ _____    ______ ____
ROOT
ATOM      1  O   UNL     1       7.117   0.384   0.000  0.00  0.00    +0.000 OA
ATOM      2  O   UNL     1       4.236   0.412   0.000  0.00  0.00    +0.000 OA
ATOM      3  O   UNL     1       5.665   2.888   0.000  0.00  0.00    +0.000 OA
ATOM      4  O   UNL     1       7.108   2.916   0.000  0.00  0.00    +0.000 OA
ATOM      5  C   UNL     1       5.665   0.412   0.000  0.00  0.00    +0.000 A 
ATOM      6  C   UNL     1       6.380   0.825   0.000  0.00  0.00    +0.000 A 
ATOM      7  C   UNL     1       4.951   0.825   0.000  0.00  0.00    +0.000 A 
ATOM      8  C   UNL     1       6.380   1.650   0.000  0.00  0.00    +0.000 A 
ATOM      9  C   UNL     1       5.665   2.062   0.000  0.00  0.00    +0.000 A 
ATOM     10  C   UNL     1       4.951   1.650   0.000  0.00  0.00    +0.000 A 
ATOM     11  C   UNL     1       7.117   2.091   0.000  0.00  0.00    +0.000 A 
ATOM     12  C   UNL     1       7.865   0.808   0.000  0.00  0.00    +0.000 A 
ATOM     13  C   UNL     1       7.865   1.667   0.000  0.00  0.00    +0.000 A 
ENDROOT
BRANCH  12  15
ATOM     14  O   UNL     1      10.716  -0.853   0.000  0.00  0.00    +0.000 OA
ATOM     15  C   UNL     1       8.578   0.393   0.000  0.00  0.00    +0.000 A 
ATOM     16  C   UNL     1       8.575  -0.432   0.000  0.00  0.00    +0.000 A 
ATOM     17  C   UNL     1       9.294   0.802   0.000  0.00  0.00    +0.000 A 
ATOM     18  C   UNL     1       9.287  -0.848   0.000  0.00  0.00    +0.000 A 
ATOM     19  C   UNL     1      10.007   0.387   0.000  0.00  0.00    +0.000 A 
ATOM     20  C   UNL     1      10.004  -0.438   0.000  0.00  0.00    +0.000 A 
BRANCH  18  21
ATOM     21  O   UNL     1       9.284  -1.673   0.000  0.00  0.00    +0.000 OA
BRANCH  21  22
ATOM     22  S   UNL     1       9.997  -2.088   0.000  0.00  0.00    +0.000 S 
ATOM     23  O   UNL     1      10.710  -2.503   0.000  0.00  0.00    +0.000 OA
ATOM     24  O   UNL     1       9.582  -2.801   0.000  0.00  0.00    +0.000 OA
ATOM     25  O   UNL     1      10.412  -1.375   0.000  0.00  0.00    +0.000 OA
ENDBRANCH  21  22
ENDBRANCH  18  21
ENDBRANCH  12  15
BRANCH   5  26
ATOM     26  O   UNL     1       5.665  -0.412   0.000  0.00  0.00    +0.000 OA
BRANCH  26  35
ATOM     27  O   UNL     1       4.236  -0.412   0.000  0.00  0.00    +0.000 OA
ATOM     28  O   UNL     1       4.236  -2.888   0.000  0.00  0.00    +0.000 OA
ATOM     29  O   UNL     1       2.808  -2.062   0.000  0.00  0.00    +0.000 OA
ATOM     30  O   UNL     1       5.665  -2.062   0.000  0.00  0.00    +0.000 OA
ATOM     31  C   UNL     1       4.236  -2.062   0.000  0.00  0.00    +0.000 C 
ATOM     32  C   UNL     1       3.522  -1.650   0.000  0.00  0.00    +0.000 C 
ATOM     33  C   UNL     1       4.951  -1.650   0.000  0.00  0.00    +0.000 C 
ATOM     34  C   UNL     1       3.522  -0.825   0.000  0.00  0.00    +0.000 C 
ATOM     35  C   UNL     1       4.951  -0.825   0.000  0.00  0.00    +0.000 C 
BRANCH  34  37
ATOM     36  O   UNL     1       2.093  -0.825   0.000  0.00  0.00    +0.000 OA
ATOM     37  C   UNL     1       2.808  -0.412   0.000  0.00  0.00    +0.000 C 
ENDBRANCH  34  37
ENDBRANCH  26  35
ENDBRANCH   5  26
TORSDOF 6
