REMARK  Name = 42607900
REMARK  7 active torsions:
REMARK  status: ('A' for Active; 'I' for Inactive)
REMARK    1  A    between atoms: O_2  and  C_20
REMARK    2  A    between atoms: O_2  and  C_23
REMARK    3  A    between atoms: O_4  and  C_22
REMARK    4  A    between atoms: O_4  and  C_26
REMARK    5  A    between atoms: C_15  and  C_23
REMARK    6  A    between atoms: C_16  and  C_25
REMARK    7  A    between atoms: C_31  and  C_37
REMARK                            x       y       z     vdW  Elec       q    Type
REMARK                         _______ _______ _______ _____ _____    ______ ____
ROOT
ATOM      1  O   UNL     1       8.400  -1.380   0.000  0.00  0.00    +0.000 OA
ENDROOT
BRANCH   1   5
ATOM      2  O   UNL     1       9.865   1.101   0.000  0.00  0.00    +0.000 OA
ATOM      3  O   UNL     1       6.971   1.095   0.000  0.00  0.00    +0.000 OA
ATOM      4  O   UNL     1       7.668   2.359   0.000  0.00  0.00    +0.000 OA
ATOM      5  C   UNL     1       8.400  -0.555   0.000  0.00  0.00    +0.000 A 
ATOM      6  C   UNL     1       9.114  -0.142   0.000  0.00  0.00    +0.000 A 
ATOM      7  C   UNL     1       7.686  -0.142   0.000  0.00  0.00    +0.000 A 
ATOM      8  C   UNL     1       9.114   0.683   0.000  0.00  0.00    +0.000 A 
ATOM      9  C   UNL     1       8.400   1.095   0.000  0.00  0.00    +0.000 A 
ATOM     10  C   UNL     1       9.872   1.960   0.000  0.00  0.00    +0.000 C 
ATOM     11  C   UNL     1       7.686   0.683   0.000  0.00  0.00    +0.000 A 
ATOM     12  C   UNL     1       9.128   2.390   0.000  0.00  0.00    +0.000 C 
ATOM     13  C   UNL     1       8.387   1.954   0.000  0.00  0.00    +0.000 C 
ATOM     14  C   UNL     1       9.829  -0.555   0.000  0.00  0.00    +0.000 C 
ATOM     15  C   UNL     1       6.971  -0.555   0.000  0.00  0.00    +0.000 C 
BRANCH  10  17
ATOM     16  O   UNL     1      12.736   3.599   0.000  0.00  0.00    +0.000 OA
ATOM     17  C   UNL     1      10.588   2.370   0.000  0.00  0.00    +0.000 A 
ATOM     18  C   UNL     1      10.591   3.195   0.000  0.00  0.00    +0.000 A 
ATOM     19  C   UNL     1      11.301   1.955   0.000  0.00  0.00    +0.000 A 
ATOM     20  C   UNL     1      11.307   3.605   0.000  0.00  0.00    +0.000 A 
ATOM     21  C   UNL     1      12.017   2.364   0.000  0.00  0.00    +0.000 A 
ATOM     22  C   UNL     1      12.020   3.189   0.000  0.00  0.00    +0.000 A 
ENDBRANCH  10  17
ENDBRANCH   1   5
BRANCH   1  31
ATOM     23  O   UNL     1       6.971  -1.380   0.000  0.00  0.00    +0.000 OA
ATOM     24  O   UNL     1       5.542  -3.030   0.000  0.00  0.00    +0.000 OA
ATOM     25  O   UNL     1       6.971  -3.855   0.000  0.00  0.00    +0.000 OA
ATOM     26  O   UNL     1       8.400  -3.030   0.000  0.00  0.00    +0.000 OA
ATOM     27  C   UNL     1       6.257  -1.792   0.000  0.00  0.00    +0.000 C 
ATOM     28  C   UNL     1       6.257  -2.617   0.000  0.00  0.00    +0.000 C 
ATOM     29  C   UNL     1       6.971  -3.030   0.000  0.00  0.00    +0.000 C 
ATOM     30  C   UNL     1       7.686  -2.617   0.000  0.00  0.00    +0.000 C 
ATOM     31  C   UNL     1       7.686  -1.792   0.000  0.00  0.00    +0.000 C 
BRANCH  27  32
ATOM     32  C   UNL     1       5.542  -1.380   0.000  0.00  0.00    +0.000 C 
BRANCH  32  33
ATOM     33  O   UNL     1       4.828  -1.792   0.000  0.00  0.00    +0.000 OA
BRANCH  33  39
ATOM     34  O   UNL     1       4.027  -0.559   0.000  0.00  0.00    +0.000 OA
ATOM     35  O   UNL     1       2.194  -1.654   0.000  0.00  0.00    +0.000 OA
ATOM     36  O   UNL     1       3.188  -2.522   0.000  0.00  0.00    +0.000 OA
ATOM     37  C   UNL     1       2.808  -1.102   0.000  0.00  0.00    +0.000 C 
ATOM     38  C   UNL     1       3.360  -1.715   0.000  0.00  0.00    +0.000 C 
ATOM     39  C   UNL     1       4.113  -1.380   0.000  0.00  0.00    +0.000 C 
ATOM     40  C   UNL     1       3.220  -0.388   0.000  0.00  0.00    +0.000 C 
BRANCH  37  42
ATOM     41  O   UNL     1       2.093   0.135   0.000  0.00  0.00    +0.000 OA
ATOM     42  C   UNL     1       2.093  -0.690   0.000  0.00  0.00    +0.000 C 
ENDBRANCH  37  42
ENDBRANCH  33  39
ENDBRANCH  32  33
ENDBRANCH  27  32
ENDBRANCH   1  31
TORSDOF 7
