REMARK  Name = 42608107
REMARK  7 active torsions:
REMARK  status: ('A' for Active; 'I' for Inactive)
REMARK    1  A    between atoms: O_2  and  C_17
REMARK    2  A    between atoms: O_2  and  C_21
REMARK    3  A    between atoms: O_9  and  C_24
REMARK    4  A    between atoms: O_11  and  C_31
REMARK    5  A    between atoms: O_13  and  C_33
REMARK    6  A    between atoms: C_18  and  C_22
REMARK    7  A    between atoms: C_19  and  C_20
REMARK                            x       y       z     vdW  Elec       q    Type
REMARK                         _______ _______ _______ _____ _____    ______ ____
ROOT
ATOM      1  C   UNL     1       5.937   0.953   0.000  0.00  0.00    +0.000 A 
ATOM      2  C   UNL     1       5.222   0.540   0.000  0.00  0.00    +0.000 A 
ATOM      3  C   UNL     1       5.937   1.778   0.000  0.00  0.00    +0.000 A 
ATOM      4  C   UNL     1       4.508   0.953   0.000  0.00  0.00    +0.000 A 
ATOM      5  C   UNL     1       5.222   2.190   0.000  0.00  0.00    +0.000 A 
ATOM      6  C   UNL     1       4.508   1.778   0.000  0.00  0.00    +0.000 A 
ENDROOT
BRANCH   1  10
ATOM      7  O   UNL     1       7.366   0.953   0.000  0.00  0.00    +0.000 OA
ATOM      8  O   UNL     1       7.366  -1.522   0.000  0.00  0.00    +0.000 OA
ATOM      9  O   UNL     1       8.808  -1.551   0.000  0.00  0.00    +0.000 OA
ATOM     10  C   UNL     1       6.651   0.540   0.000  0.00  0.00    +0.000 C 
ATOM     11  C   UNL     1       6.651  -0.285   0.000  0.00  0.00    +0.000 C 
ATOM     12  C   UNL     1       7.366  -0.697   0.000  0.00  0.00    +0.000 C 
ATOM     13  C   UNL     1       8.080   0.540   0.000  0.00  0.00    +0.000 A 
ATOM     14  C   UNL     1       8.080  -0.285   0.000  0.00  0.00    +0.000 A 
ATOM     15  C   UNL     1       8.818   0.982   0.000  0.00  0.00    +0.000 A 
ATOM     16  C   UNL     1       8.818  -0.726   0.000  0.00  0.00    +0.000 A 
ATOM     17  C   UNL     1       9.565   0.557   0.000  0.00  0.00    +0.000 A 
ATOM     18  C   UNL     1       9.565  -0.302   0.000  0.00  0.00    +0.000 A 
BRANCH  15  19
ATOM     19  O   UNL     1       8.808   1.806   0.000  0.00  0.00    +0.000 OA
ATOM     20  C   UNL     1       9.518   2.227   0.000  0.00  0.00    +0.000 C 
ENDBRANCH  15  19
BRANCH  17  21
ATOM     21  O   UNL     1      10.278   0.973   0.000  0.00  0.00    +0.000 OA
ATOM     22  C   UNL     1      10.994   0.563   0.000  0.00  0.00    +0.000 C 
ENDBRANCH  17  21
ENDBRANCH   1  10
BRANCH   3  23
ATOM     23  O   UNL     1       6.651   2.190   0.000  0.00  0.00    +0.000 OA
ATOM     24  C   UNL     1       6.651   3.015   0.000  0.00  0.00    +0.000 C 
ENDBRANCH   3  23
BRANCH   2  25
ATOM     25  O   UNL     1       5.222  -0.285   0.000  0.00  0.00    +0.000 OA
BRANCH  25  33
ATOM     26  O   UNL     1       3.793  -0.285   0.000  0.00  0.00    +0.000 OA
ATOM     27  O   UNL     1       3.793  -2.760   0.000  0.00  0.00    +0.000 OA
ATOM     28  O   UNL     1       5.222  -1.935   0.000  0.00  0.00    +0.000 OA
ATOM     29  O   UNL     1       2.364  -1.935   0.000  0.00  0.00    +0.000 OA
ATOM     30  C   UNL     1       3.793  -1.935   0.000  0.00  0.00    +0.000 C 
ATOM     31  C   UNL     1       4.508  -1.522   0.000  0.00  0.00    +0.000 C 
ATOM     32  C   UNL     1       3.079  -1.522   0.000  0.00  0.00    +0.000 C 
ATOM     33  C   UNL     1       4.508  -0.697   0.000  0.00  0.00    +0.000 C 
ATOM     34  C   UNL     1       3.079  -0.697   0.000  0.00  0.00    +0.000 C 
BRANCH  34  37
ATOM     35  O   UNL     1       1.650  -0.697   0.000  0.00  0.00    +0.000 OA
ATOM     36  O   UNL     1       2.364   0.540   0.000  0.00  0.00    +0.000 OA
ATOM     37  C   UNL     1       2.364  -0.285   0.000  0.00  0.00    +0.000 C 
ENDBRANCH  34  37
ENDBRANCH  25  33
ENDBRANCH   2  25
TORSDOF 7
