REMARK  Name = 44258694
REMARK  2 active torsions:
REMARK  status: ('A' for Active; 'I' for Inactive)
REMARK    1  A    between atoms: O_2  and  C_10
REMARK    2  A    between atoms: C_9  and  C_12
REMARK                            x       y       z     vdW  Elec       q    Type
REMARK                         _______ _______ _______ _____ _____    ______ ____
ROOT
ATOM      1  O   UNL     1       4.562  -0.363   0.000  0.00  0.00    +0.000 OA
ATOM      2  O   UNL     1       4.562   2.112   0.000  0.00  0.00    +0.000 OA
ATOM      3  O   UNL     1       1.650   1.307   0.000  0.00  0.00    +0.000 OA
ATOM      4  O   UNL     1       1.650  -0.383   0.000  0.00  0.00    +0.000 OA
ATOM      5  C   UNL     1       3.848   0.875   0.000  0.00  0.00    +0.000 A 
ATOM      6  C   UNL     1       3.848   0.050   0.000  0.00  0.00    +0.000 A 
ATOM      7  C   UNL     1       5.277   0.050   0.000  0.00  0.00    +0.000 A 
ATOM      8  C   UNL     1       5.277   0.875   0.000  0.00  0.00    +0.000 A 
ATOM      9  C   UNL     1       4.562   1.287   0.000  0.00  0.00    +0.000 A 
ATOM     10  C   UNL     1       3.110   1.316   0.000  0.00  0.00    +0.000 A 
ATOM     11  C   UNL     1       3.110  -0.392   0.000  0.00  0.00    +0.000 A 
ATOM     12  C   UNL     1       2.363   0.892   0.000  0.00  0.00    +0.000 A 
ATOM     13  C   UNL     1       2.363   0.032   0.000  0.00  0.00    +0.000 A 
ENDROOT
BRANCH   7  15
ATOM     14  O   UNL     1       8.135  -1.601   0.000  0.00  0.00    +0.000 OA
ATOM     15  C   UNL     1       5.991  -0.363   0.000  0.00  0.00    +0.000 A 
ATOM     16  C   UNL     1       6.706   0.050   0.000  0.00  0.00    +0.000 A 
ATOM     17  C   UNL     1       5.991  -1.188   0.000  0.00  0.00    +0.000 A 
ATOM     18  C   UNL     1       7.420  -0.363   0.000  0.00  0.00    +0.000 A 
ATOM     19  C   UNL     1       6.706  -1.601   0.000  0.00  0.00    +0.000 A 
ATOM     20  C   UNL     1       7.420  -1.188   0.000  0.00  0.00    +0.000 A 
ENDBRANCH   7  15
BRANCH   8  21
ATOM     21  O   UNL     1       5.991   1.287   0.000  0.00  0.00    +0.000 OA
ATOM     22  C   UNL     1       5.991   2.112   0.000  0.00  0.00    +0.000 C 
ENDBRANCH   8  21
TORSDOF 2
