REMARK  Name = 131833495
REMARK  6 active torsions:
REMARK  status: ('A' for Active; 'I' for Inactive)
REMARK    1  A    between atoms: O_2  and  C_24
REMARK    2  A    between atoms: O_2  and  C_27
REMARK    3  A    between atoms: C_16  and  C_21
REMARK    4  A    between atoms: C_20  and  C_26
REMARK    5  A    between atoms: C_28  and  C_33
REMARK    6  A    between atoms: C_36  and  C_37
REMARK                            x       y       z     vdW  Elec       q    Type
REMARK                         _______ _______ _______ _____ _____    ______ ____
ROOT
ATOM      1  O   UNL     1       7.094   1.348   0.000  0.00  0.00    +0.000 OA
ATOM      2  O   UNL     1       4.200   1.354   0.000  0.00  0.00    +0.000 OA
ATOM      3  O   UNL     1       6.398   2.612   0.000  0.00  0.00    +0.000 OA
ATOM      4  C   UNL     1       6.380   0.111   0.000  0.00  0.00    +0.000 A 
ATOM      5  C   UNL     1       5.665  -0.302   0.000  0.00  0.00    +0.000 A 
ATOM      6  C   UNL     1       6.380   0.936   0.000  0.00  0.00    +0.000 A 
ATOM      7  C   UNL     1       5.665   1.348   0.000  0.00  0.00    +0.000 A 
ATOM      8  C   UNL     1       4.951   0.111   0.000  0.00  0.00    +0.000 A 
ATOM      9  C   UNL     1       4.951   0.936   0.000  0.00  0.00    +0.000 A 
ATOM     10  C   UNL     1       5.679   2.207   0.000  0.00  0.00    +0.000 A 
ATOM     11  C   UNL     1       4.938   2.643   0.000  0.00  0.00    +0.000 A 
ATOM     12  C   UNL     1       4.194   2.213   0.000  0.00  0.00    +0.000 A 
ENDROOT
BRANCH   4  17
ATOM     13  O   UNL     1       7.809   0.111   0.000  0.00  0.00    +0.000 OA
ATOM     14  O   UNL     1       6.380  -1.539   0.000  0.00  0.00    +0.000 OA
ATOM     15  O   UNL     1       7.809  -2.364   0.000  0.00  0.00    +0.000 OA
ATOM     16  O   UNL     1       9.238  -1.539   0.000  0.00  0.00    +0.000 OA
ATOM     17  C   UNL     1       7.094  -0.302   0.000  0.00  0.00    +0.000 C 
ATOM     18  C   UNL     1       7.094  -1.127   0.000  0.00  0.00    +0.000 C 
ATOM     19  C   UNL     1       7.809  -1.539   0.000  0.00  0.00    +0.000 C 
ATOM     20  C   UNL     1       8.523  -1.127   0.000  0.00  0.00    +0.000 C 
ATOM     21  C   UNL     1       8.523  -0.302   0.000  0.00  0.00    +0.000 C 
BRANCH  21  23
ATOM     22  O   UNL     1       9.952  -0.302   0.000  0.00  0.00    +0.000 OA
ATOM     23  C   UNL     1       9.238   0.111   0.000  0.00  0.00    +0.000 C 
ENDBRANCH  21  23
ENDBRANCH   4  17
BRANCH  12  24
ATOM     24  C   UNL     1       3.478   2.623   0.000  0.00  0.00    +0.000 A 
ATOM     25  C   UNL     1       3.474   3.448   0.000  0.00  0.00    +0.000 A 
ATOM     26  C   UNL     1       2.765   2.208   0.000  0.00  0.00    +0.000 A 
ATOM     27  C   UNL     1       2.758   3.858   0.000  0.00  0.00    +0.000 A 
ATOM     28  C   UNL     1       2.049   2.617   0.000  0.00  0.00    +0.000 A 
ATOM     29  C   UNL     1       2.045   3.442   0.000  0.00  0.00    +0.000 A 
ENDBRANCH  12  24
BRANCH   5  30
ATOM     30  O   UNL     1       5.665  -1.127   0.000  0.00  0.00    +0.000 OA
BRANCH  30  37
ATOM     31  O   UNL     1       4.236  -1.127   0.000  0.00  0.00    +0.000 OA
ATOM     32  O   UNL     1       5.665  -2.777   0.000  0.00  0.00    +0.000 OA
ATOM     33  O   UNL     1       4.236  -3.602   0.000  0.00  0.00    +0.000 OA
ATOM     34  O   UNL     1       2.808  -2.777   0.000  0.00  0.00    +0.000 OA
ATOM     35  C   UNL     1       4.951  -2.364   0.000  0.00  0.00    +0.000 C 
ATOM     36  C   UNL     1       4.236  -2.777   0.000  0.00  0.00    +0.000 C 
ATOM     37  C   UNL     1       4.951  -1.539   0.000  0.00  0.00    +0.000 C 
ATOM     38  C   UNL     1       3.522  -2.364   0.000  0.00  0.00    +0.000 C 
ATOM     39  C   UNL     1       3.522  -1.539   0.000  0.00  0.00    +0.000 C 
BRANCH  39  42
ATOM     40  O   UNL     1       2.093  -1.539   0.000  0.00  0.00    +0.000 OA
ATOM     41  O   UNL     1       2.808  -0.302   0.000  0.00  0.00    +0.000 OA
ATOM     42  C   UNL     1       2.808  -1.127   0.000  0.00  0.00    +0.000 C 
ENDBRANCH  39  42
ENDBRANCH  30  37
ENDBRANCH   5  30
TORSDOF 6
