REMARK  Name = 44259028
REMARK  9 active torsions:
REMARK  status: ('A' for Active; 'I' for Inactive)
REMARK    1  A    between atoms: O_3  and  C_17
REMARK    2  A    between atoms: O_3  and  C_31
REMARK    3  A    between atoms: O_4  and  C_19
REMARK    4  A    between atoms: O_4  and  C_32
REMARK    5  A    between atoms: O_5  and  C_21
REMARK    6  A    between atoms: O_5  and  C_29
REMARK    7  A    between atoms: O_7  and  C_26
REMARK    8  A    between atoms: O_7  and  C_30
REMARK    9  A    between atoms: C_34  and  C_41
REMARK                            x       y       z     vdW  Elec       q    Type
REMARK                         _______ _______ _______ _____ _____    ______ ____
ROOT
ATOM      1  O   UNL     1       6.389   0.381   0.000  0.00  0.00    +0.000 OA
ATOM      2  O   UNL     1       4.245  -0.856   0.000  0.00  0.00    +0.000 OA
ATOM      3  O   UNL     1       3.499   0.379   0.000  0.00  0.00    +0.000 OA
ATOM      4  C   UNL     1       5.674  -0.856   0.000  0.00  0.00    +0.000 A 
ATOM      5  C   UNL     1       4.947   2.088   0.000  0.00  0.00    +0.000 A 
ATOM      6  C   UNL     1       4.960  -0.444   0.000  0.00  0.00    +0.000 A 
ATOM      7  C   UNL     1       6.389  -0.444   0.000  0.00  0.00    +0.000 A 
ATOM      8  C   UNL     1       4.960   0.381   0.000  0.00  0.00    +0.000 A 
ATOM      9  C   UNL     1       5.674   0.794   0.000  0.00  0.00    +0.000 A 
ATOM     10  C   UNL     1       5.688   1.653   0.000  0.00  0.00    +0.000 A 
ATOM     11  C   UNL     1       4.202   1.659   0.000  0.00  0.00    +0.000 A 
ATOM     12  C   UNL     1       4.209   0.799   0.000  0.00  0.00    +0.000 A 
ENDROOT
BRANCH   7  14
ATOM     13  O   UNL     1       9.247  -2.094   0.000  0.00  0.00    +0.000 OA
ATOM     14  C   UNL     1       7.103  -0.856   0.000  0.00  0.00    +0.000 A 
ATOM     15  C   UNL     1       7.103  -1.681   0.000  0.00  0.00    +0.000 A 
ATOM     16  C   UNL     1       7.818  -0.444   0.000  0.00  0.00    +0.000 A 
ATOM     17  C   UNL     1       7.818  -2.094   0.000  0.00  0.00    +0.000 A 
ATOM     18  C   UNL     1       8.532  -0.856   0.000  0.00  0.00    +0.000 A 
ATOM     19  C   UNL     1       8.532  -1.681   0.000  0.00  0.00    +0.000 A 
ENDBRANCH   7  14
BRANCH   4  20
ATOM     20  O   UNL     1       5.674  -1.681   0.000  0.00  0.00    +0.000 OA
BRANCH  20  27
ATOM     21  O   UNL     1       4.245  -1.681   0.000  0.00  0.00    +0.000 OA
ATOM     22  O   UNL     1       2.816  -3.331   0.000  0.00  0.00    +0.000 OA
ATOM     23  C   UNL     1       4.245  -3.331   0.000  0.00  0.00    +0.000 C 
ATOM     24  C   UNL     1       3.531  -2.919   0.000  0.00  0.00    +0.000 C 
ATOM     25  C   UNL     1       4.960  -2.919   0.000  0.00  0.00    +0.000 C 
ATOM     26  C   UNL     1       3.531  -2.094   0.000  0.00  0.00    +0.000 C 
ATOM     27  C   UNL     1       4.960  -2.094   0.000  0.00  0.00    +0.000 C 
ATOM     28  C   UNL     1       2.816  -1.681   0.000  0.00  0.00    +0.000 C 
BRANCH  23  29
ATOM     29  O   UNL     1       4.245  -4.156   0.000  0.00  0.00    +0.000 OA
BRANCH  29  31
ATOM     30  O   UNL     1       2.816  -4.156   0.000  0.00  0.00    +0.000 OA
ATOM     31  C   UNL     1       3.531  -4.569   0.000  0.00  0.00    +0.000 C 
ATOM     32  C   UNL     1       3.531  -5.394   0.000  0.00  0.00    +0.000 C 
ENDBRANCH  29  31
ENDBRANCH  23  29
BRANCH  25  33
ATOM     33  O   UNL     1       5.674  -3.331   0.000  0.00  0.00    +0.000 OA
BRANCH  33  35
ATOM     34  O   UNL     1       4.960  -4.569   0.000  0.00  0.00    +0.000 OA
ATOM     35  C   UNL     1       5.674  -4.156   0.000  0.00  0.00    +0.000 C 
ATOM     36  C   UNL     1       6.389  -4.569   0.000  0.00  0.00    +0.000 C 
ENDBRANCH  33  35
ENDBRANCH  25  33
ENDBRANCH  20  27
ENDBRANCH   4  20
BRANCH   5  37
ATOM     37  O   UNL     1       4.950   2.913   0.000  0.00  0.00    +0.000 OA
BRANCH  37  46
ATOM     38  O   UNL     1       4.240   4.154   0.000  0.00  0.00    +0.000 OA
ATOM     39  O   UNL     1       2.092   2.924   0.000  0.00  0.00    +0.000 OA
ATOM     40  O   UNL     1       2.098   4.574   0.000  0.00  0.00    +0.000 OA
ATOM     41  O   UNL     1       3.518   2.094   0.000  0.00  0.00    +0.000 OA
ATOM     42  C   UNL     1       2.808   3.334   0.000  0.00  0.00    +0.000 C 
ATOM     43  C   UNL     1       2.811   4.159   0.000  0.00  0.00    +0.000 C 
ATOM     44  C   UNL     1       3.521   2.919   0.000  0.00  0.00    +0.000 C 
ATOM     45  C   UNL     1       3.527   4.569   0.000  0.00  0.00    +0.000 C 
ATOM     46  C   UNL     1       4.237   3.329   0.000  0.00  0.00    +0.000 C 
ATOM     47  C   UNL     1       3.530   5.394   0.000  0.00  0.00    +0.000 C 
ENDBRANCH  37  46
ENDBRANCH   5  37
TORSDOF 9
