REMARK  Name = 44257632
REMARK  6 active torsions:
REMARK  status: ('A' for Active; 'I' for Inactive)
REMARK    1  A    between atoms: O_2  and  C_11
REMARK    2  A    between atoms: O_2  and  C_18
REMARK    3  A    between atoms: O_4  and  C_15
REMARK    4  A    between atoms: O_4  and  C_17
REMARK    5  A    between atoms: C_13  and  C_16
REMARK    6  A    between atoms: C_26  and  C_28
REMARK                            x       y       z     vdW  Elec       q    Type
REMARK                         _______ _______ _______ _____ _____    ______ ____
ROOT
ATOM      1  O   UNL     1       7.114   1.472   0.000  0.00  0.00    +0.000 OA
ATOM      2  O   UNL     1       4.225   1.486   0.000  0.00  0.00    +0.000 OA
ATOM      3  O   UNL     1       4.975   2.718   0.000  0.00  0.00    +0.000 OA
ATOM      4  C   UNL     1       5.665  -0.229   0.000  0.00  0.00    +0.000 A 
ATOM      5  C   UNL     1       6.408   0.203   0.000  0.00  0.00    +0.000 A 
ATOM      6  C   UNL     1       4.923   0.203   0.000  0.00  0.00    +0.000 A 
ATOM      7  C   UNL     1       6.398   1.063   0.000  0.00  0.00    +0.000 A 
ATOM      8  C   UNL     1       5.685   1.478   0.000  0.00  0.00    +0.000 A 
ATOM      9  C   UNL     1       4.933   1.063   0.000  0.00  0.00    +0.000 A 
ATOM     10  C   UNL     1       5.688   2.303   0.000  0.00  0.00    +0.000 A 
ATOM     11  C   UNL     1       7.117   2.297   0.000  0.00  0.00    +0.000 A 
ATOM     12  C   UNL     1       6.404   2.712   0.000  0.00  0.00    +0.000 A 
ENDROOT
BRANCH  11  13
ATOM     13  C   UNL     1       7.833   2.707   0.000  0.00  0.00    +0.000 A 
ATOM     14  C   UNL     1       7.836   3.532   0.000  0.00  0.00    +0.000 A 
ATOM     15  C   UNL     1       8.546   2.292   0.000  0.00  0.00    +0.000 A 
ATOM     16  C   UNL     1       8.552   3.942   0.000  0.00  0.00    +0.000 A 
ATOM     17  C   UNL     1       9.262   2.701   0.000  0.00  0.00    +0.000 A 
ATOM     18  C   UNL     1       9.265   3.526   0.000  0.00  0.00    +0.000 A 
ENDBRANCH  11  13
BRANCH   4  19
ATOM     19  O   UNL     1       5.665  -1.054   0.000  0.00  0.00    +0.000 OA
BRANCH  19  27
ATOM     20  O   UNL     1       4.236  -1.054   0.000  0.00  0.00    +0.000 OA
ATOM     21  O   UNL     1       4.236  -3.529   0.000  0.00  0.00    +0.000 OA
ATOM     22  O   UNL     1       5.665  -2.704   0.000  0.00  0.00    +0.000 OA
ATOM     23  C   UNL     1       3.522  -2.292   0.000  0.00  0.00    +0.000 C 
ATOM     24  C   UNL     1       4.236  -2.704   0.000  0.00  0.00    +0.000 C 
ATOM     25  C   UNL     1       3.522  -1.467   0.000  0.00  0.00    +0.000 C 
ATOM     26  C   UNL     1       4.951  -2.292   0.000  0.00  0.00    +0.000 C 
ATOM     27  C   UNL     1       4.951  -1.467   0.000  0.00  0.00    +0.000 C 
BRANCH  25  29
ATOM     28  O   UNL     1       2.093  -1.467   0.000  0.00  0.00    +0.000 OA
ATOM     29  C   UNL     1       2.808  -1.054   0.000  0.00  0.00    +0.000 C 
ENDBRANCH  25  29
BRANCH  23  30
ATOM     30  O   UNL     1       2.808  -2.704   0.000  0.00  0.00    +0.000 OA
BRANCH  30  32
ATOM     31  O   UNL     1       3.522  -3.942   0.000  0.00  0.00    +0.000 OA
ATOM     32  C   UNL     1       2.808  -3.529   0.000  0.00  0.00    +0.000 C 
ATOM     33  C   UNL     1       2.093  -3.942   0.000  0.00  0.00    +0.000 C 
ENDBRANCH  30  32
ENDBRANCH  23  30
ENDBRANCH  19  27
ENDBRANCH   4  19
TORSDOF 6
