REMARK  Name = 42607795
REMARK  3 active torsions:
REMARK  status: ('A' for Active; 'I' for Inactive)
REMARK    1  A    between atoms: O_2  and  C_10
REMARK    2  A    between atoms: O_2  and  C_13
REMARK    3  A    between atoms: C_14  and  C_22
REMARK                            x       y       z     vdW  Elec       q    Type
REMARK                         _______ _______ _______ _____ _____    ______ ____
ROOT
ATOM      1  O   UNL     1       7.832  -0.650   0.000  0.00  0.00    +0.000 OA
ATOM      2  O   UNL     1       7.822   1.882   0.000  0.00  0.00    +0.000 OA
ATOM      3  C   UNL     1       5.665  -0.209   0.000  0.00  0.00    +0.000 A 
ATOM      4  C   UNL     1       8.579  -0.226   0.000  0.00  0.00    +0.000 C 
ATOM      5  C   UNL     1       7.094  -0.209   0.000  0.00  0.00    +0.000 A 
ATOM      6  C   UNL     1       6.380  -0.622   0.000  0.00  0.00    +0.000 A 
ATOM      7  C   UNL     1       7.094   0.616   0.000  0.00  0.00    +0.000 A 
ATOM      8  C   UNL     1       8.579   0.633   0.000  0.00  0.00    +0.000 C 
ATOM      9  C   UNL     1       5.665   0.616   0.000  0.00  0.00    +0.000 A 
ATOM     10  C   UNL     1       7.832   1.057   0.000  0.00  0.00    +0.000 C 
ATOM     11  C   UNL     1       6.380   1.028   0.000  0.00  0.00    +0.000 A 
ATOM     12  C   UNL     1       6.380  -1.447   0.000  0.00  0.00    +0.000 C 
ATOM     13  C   UNL     1       4.951   1.028   0.000  0.00  0.00    +0.000 C 
ENDROOT
BRANCH   4  14
ATOM     14  C   UNL     1       9.292  -0.642   0.000  0.00  0.00    +0.000 A 
ATOM     15  C   UNL     1      10.008  -0.232   0.000  0.00  0.00    +0.000 A 
ATOM     16  C   UNL     1       9.289  -1.467   0.000  0.00  0.00    +0.000 A 
ATOM     17  C   UNL     1      10.721  -0.647   0.000  0.00  0.00    +0.000 A 
ATOM     18  C   UNL     1      10.002  -1.882   0.000  0.00  0.00    +0.000 A 
ATOM     19  C   UNL     1      10.718  -1.472   0.000  0.00  0.00    +0.000 A 
ENDBRANCH   4  14
BRANCH   3  20
ATOM     20  O   UNL     1       4.951  -0.622   0.000  0.00  0.00    +0.000 OA
BRANCH  20  27
ATOM     21  O   UNL     1       4.236   0.616   0.000  0.00  0.00    +0.000 OA
ATOM     22  O   UNL     1       3.522  -1.447   0.000  0.00  0.00    +0.000 OA
ATOM     23  O   UNL     1       2.093  -0.622   0.000  0.00  0.00    +0.000 OA
ATOM     24  O   UNL     1       2.093   1.028   0.000  0.00  0.00    +0.000 OA
ATOM     25  C   UNL     1       3.522  -0.622   0.000  0.00  0.00    +0.000 C 
ATOM     26  C   UNL     1       2.808  -0.209   0.000  0.00  0.00    +0.000 C 
ATOM     27  C   UNL     1       4.236  -0.209   0.000  0.00  0.00    +0.000 C 
ATOM     28  C   UNL     1       2.808   0.616   0.000  0.00  0.00    +0.000 C 
ATOM     29  C   UNL     1       3.522   1.028   0.000  0.00  0.00    +0.000 C 
ENDBRANCH  20  27
ENDBRANCH   3  20
TORSDOF 3
