REMARK  Name = 44258406
REMARK  3 active torsions:
REMARK  status: ('A' for Active; 'I' for Inactive)
REMARK    1  A    between atoms: O_2  and  C_14
REMARK    2  A    between atoms: O_2  and  C_16
REMARK    3  A    between atoms: C_23  and  C_25
REMARK                            x       y       z     vdW  Elec       q    Type
REMARK                         _______ _______ _______ _____ _____    ______ ____
ROOT
ATOM      1  O   UNL     1       6.416   1.354   0.000  0.00  0.00    +0.000 OA
ATOM      2  O   UNL     1       3.522  -0.302   0.000  0.00  0.00    +0.000 OA
ATOM      3  O   UNL     1       3.522   1.348   0.000  0.00  0.00    +0.000 OA
ATOM      4  O   UNL     1       4.218   2.612   0.000  0.00  0.00    +0.000 OA
ATOM      5  C   UNL     1       4.951  -0.302   0.000  0.00  0.00    +0.000 A 
ATOM      6  C   UNL     1       5.665   0.111   0.000  0.00  0.00    +0.000 A 
ATOM      7  C   UNL     1       4.236   0.111   0.000  0.00  0.00    +0.000 A 
ATOM      8  C   UNL     1       5.665   0.936   0.000  0.00  0.00    +0.000 A 
ATOM      9  C   UNL     1       4.951   1.348   0.000  0.00  0.00    +0.000 A 
ATOM     10  C   UNL     1       4.236   0.936   0.000  0.00  0.00    +0.000 A 
ATOM     11  C   UNL     1       4.938   2.207   0.000  0.00  0.00    +0.000 A 
ATOM     12  C   UNL     1       6.423   2.213   0.000  0.00  0.00    +0.000 A 
ATOM     13  C   UNL     1       5.678   2.643   0.000  0.00  0.00    +0.000 A 
ENDROOT
BRANCH  12  14
ATOM     14  C   UNL     1       7.139   2.623   0.000  0.00  0.00    +0.000 A 
ATOM     15  C   UNL     1       7.142   3.448   0.000  0.00  0.00    +0.000 A 
ATOM     16  C   UNL     1       7.852   2.208   0.000  0.00  0.00    +0.000 A 
ATOM     17  C   UNL     1       7.858   3.858   0.000  0.00  0.00    +0.000 A 
ATOM     18  C   UNL     1       8.568   2.617   0.000  0.00  0.00    +0.000 A 
ATOM     19  C   UNL     1       8.571   3.442   0.000  0.00  0.00    +0.000 A 
ENDBRANCH  12  14
BRANCH   5  20
ATOM     20  O   UNL     1       4.951  -1.127   0.000  0.00  0.00    +0.000 OA
BRANCH  20  29
ATOM     21  O   UNL     1       3.522  -1.127   0.000  0.00  0.00    +0.000 OA
ATOM     22  O   UNL     1       3.522  -3.602   0.000  0.00  0.00    +0.000 OA
ATOM     23  O   UNL     1       2.093  -2.777   0.000  0.00  0.00    +0.000 OA
ATOM     24  O   UNL     1       4.951  -2.777   0.000  0.00  0.00    +0.000 OA
ATOM     25  C   UNL     1       3.522  -2.777   0.000  0.00  0.00    +0.000 C 
ATOM     26  C   UNL     1       2.808  -2.364   0.000  0.00  0.00    +0.000 C 
ATOM     27  C   UNL     1       4.236  -2.364   0.000  0.00  0.00    +0.000 C 
ATOM     28  C   UNL     1       2.808  -1.539   0.000  0.00  0.00    +0.000 C 
ATOM     29  C   UNL     1       4.236  -1.539   0.000  0.00  0.00    +0.000 C 
ATOM     30  C   UNL     1       2.093  -1.127   0.000  0.00  0.00    +0.000 C 
ENDBRANCH  20  29
ENDBRANCH   5  20
TORSDOF 3
