REMARK  Name = 42607862
REMARK  10 active torsions:
REMARK  status: ('A' for Active; 'I' for Inactive)
REMARK    1  A    between atoms: O_1  and  C_20
REMARK    2  A    between atoms: O_1  and  C_21
REMARK    3  A    between atoms: O_3  and  C_24
REMARK    4  A    between atoms: O_3  and  C_29
REMARK    5  A    between atoms: O_8  and  C_26
REMARK    6  A    between atoms: O_8  and  C_34
REMARK    7  A    between atoms: C_18  and  C_24
REMARK    8  A    between atoms: C_27  and  C_32
REMARK    9  A    between atoms: C_28  and  C_33
REMARK   10  A    between atoms: C_40  and  C_43
REMARK                            x       y       z     vdW  Elec       q    Type
REMARK                         _______ _______ _______ _____ _____    ______ ____
ROOT
ATOM      1  O   UNL     1       4.236  -0.471   0.000  0.00  0.00    +0.000 OA
ATOM      2  O   UNL     1       4.236  -2.946   0.000  0.00  0.00    +0.000 OA
ATOM      3  O   UNL     1       2.808  -2.121   0.000  0.00  0.00    +0.000 OA
ATOM      4  C   UNL     1       4.951  -1.709   0.000  0.00  0.00    +0.000 C 
ATOM      5  C   UNL     1       4.236  -2.121   0.000  0.00  0.00    +0.000 C 
ATOM      6  C   UNL     1       3.522  -1.709   0.000  0.00  0.00    +0.000 C 
ATOM      7  C   UNL     1       4.951  -0.884   0.000  0.00  0.00    +0.000 C 
ATOM      8  C   UNL     1       3.522  -0.884   0.000  0.00  0.00    +0.000 C 
ENDROOT
BRANCH   8  10
ATOM      9  O   UNL     1       2.093  -0.884   0.000  0.00  0.00    +0.000 OA
ATOM     10  C   UNL     1       2.808  -0.471   0.000  0.00  0.00    +0.000 C 
ENDBRANCH   8  10
BRANCH   4  11
ATOM     11  O   UNL     1       5.665  -2.121   0.000  0.00  0.00    +0.000 OA
BRANCH  11  17
ATOM     12  O   UNL     1       6.466  -0.888   0.000  0.00  0.00    +0.000 OA
ATOM     13  O   UNL     1       8.400  -1.019   0.000  0.00  0.00    +0.000 OA
ATOM     14  O   UNL     1       7.305  -2.851   0.000  0.00  0.00    +0.000 OA
ATOM     15  C   UNL     1       7.686  -1.431   0.000  0.00  0.00    +0.000 C 
ATOM     16  C   UNL     1       7.133  -2.044   0.000  0.00  0.00    +0.000 C 
ATOM     17  C   UNL     1       6.380  -1.709   0.000  0.00  0.00    +0.000 C 
ATOM     18  C   UNL     1       7.273  -0.717   0.000  0.00  0.00    +0.000 C 
BRANCH  15  19
ATOM     19  C   UNL     1       8.299  -1.983   0.000  0.00  0.00    +0.000 C 
BRANCH  19  20
ATOM     20  O   UNL     1       9.083  -1.728   0.000  0.00  0.00    +0.000 OA
BRANCH  20  25
ATOM     21  O   UNL     1       9.610  -3.101   0.000  0.00  0.00    +0.000 OA
ATOM     22  O   UNL     1      11.630  -2.411   0.000  0.00  0.00    +0.000 OA
ATOM     23  O   UNL     1      10.839  -1.355   0.000  0.00  0.00    +0.000 OA
ATOM     24  C   UNL     1      10.916  -2.823   0.000  0.00  0.00    +0.000 C 
ATOM     25  C   UNL     1       9.696  -2.280   0.000  0.00  0.00    +0.000 C 
ATOM     26  C   UNL     1      10.503  -2.109   0.000  0.00  0.00    +0.000 C 
ATOM     27  C   UNL     1      10.364  -3.437   0.000  0.00  0.00    +0.000 C 
BRANCH  24  29
ATOM     28  O   UNL     1      11.357  -4.182   0.000  0.00  0.00    +0.000 OA
ATOM     29  C   UNL     1      11.529  -3.375   0.000  0.00  0.00    +0.000 C 
ENDBRANCH  24  29
ENDBRANCH  20  25
ENDBRANCH  19  20
ENDBRANCH  15  19
ENDBRANCH  11  17
ENDBRANCH   4  11
BRANCH   7  30
ATOM     30  O   UNL     1       5.665  -0.471   0.000  0.00  0.00    +0.000 OA
BRANCH  30  34
ATOM     31  O   UNL     1       7.114   2.055   0.000  0.00  0.00    +0.000 OA
ATOM     32  O   UNL     1       4.225   2.069   0.000  0.00  0.00    +0.000 OA
ATOM     33  O   UNL     1       4.975   3.301   0.000  0.00  0.00    +0.000 OA
ATOM     34  C   UNL     1       5.665   0.354   0.000  0.00  0.00    +0.000 A 
ATOM     35  C   UNL     1       6.408   0.786   0.000  0.00  0.00    +0.000 A 
ATOM     36  C   UNL     1       4.923   0.786   0.000  0.00  0.00    +0.000 A 
ATOM     37  C   UNL     1       6.398   1.645   0.000  0.00  0.00    +0.000 A 
ATOM     38  C   UNL     1       5.685   2.061   0.000  0.00  0.00    +0.000 A 
ATOM     39  C   UNL     1       4.933   1.645   0.000  0.00  0.00    +0.000 A 
ATOM     40  C   UNL     1       7.117   2.880   0.000  0.00  0.00    +0.000 C 
ATOM     41  C   UNL     1       6.404   3.296   0.000  0.00  0.00    +0.000 C 
ATOM     42  C   UNL     1       5.688   2.886   0.000  0.00  0.00    +0.000 C 
BRANCH  40  43
ATOM     43  C   UNL     1       7.833   3.290   0.000  0.00  0.00    +0.000 A 
ATOM     44  C   UNL     1       8.546   2.875   0.000  0.00  0.00    +0.000 A 
ATOM     45  C   UNL     1       7.836   4.115   0.000  0.00  0.00    +0.000 A 
ATOM     46  C   UNL     1       9.262   3.284   0.000  0.00  0.00    +0.000 A 
ATOM     47  C   UNL     1       8.552   4.525   0.000  0.00  0.00    +0.000 A 
ATOM     48  C   UNL     1       9.265   4.109   0.000  0.00  0.00    +0.000 A 
ENDBRANCH  40  43
ENDBRANCH  30  34
ENDBRANCH   7  30
TORSDOF 10
