REMARK  Name = 131833703
REMARK  7 active torsions:
REMARK  status: ('A' for Active; 'I' for Inactive)
REMARK    1  A    between atoms: O_1  and  C_20
REMARK    2  A    between atoms: O_1  and  C_21
REMARK    3  A    between atoms: O_10  and  C_39
REMARK    4  A    between atoms: O_10  and  C_47
REMARK    5  A    between atoms: C_25  and  C_30
REMARK    6  A    between atoms: C_38  and  C_44
REMARK    7  A    between atoms: C_45  and  C_48
REMARK                            x       y       z     vdW  Elec       q    Type
REMARK                         _______ _______ _______ _____ _____    ______ ____
ROOT
ATOM      1  O   UNL     1       7.094   1.794   0.000  0.00  0.00    +0.000 OA
ATOM      2  O   UNL     1       5.665  -0.681   0.000  0.00  0.00    +0.000 OA
ATOM      3  O   UNL     1       8.546  -0.710   0.000  0.00  0.00    +0.000 OA
ATOM      4  O   UNL     1       8.537   1.822   0.000  0.00  0.00    +0.000 OA
ATOM      5  C   UNL     1       6.380   0.556   0.000  0.00  0.00    +0.000 A 
ATOM      6  C   UNL     1       7.094   0.969   0.000  0.00  0.00    +0.000 A 
ATOM      7  C   UNL     1       6.380  -0.269   0.000  0.00  0.00    +0.000 A 
ATOM      8  C   UNL     1       7.809   0.556   0.000  0.00  0.00    +0.000 A 
ATOM      9  C   UNL     1       7.094  -0.681   0.000  0.00  0.00    +0.000 A 
ATOM     10  C   UNL     1       7.809  -0.269   0.000  0.00  0.00    +0.000 A 
ATOM     11  C   UNL     1       8.546   0.997   0.000  0.00  0.00    +0.000 A 
ATOM     12  C   UNL     1       9.294  -0.286   0.000  0.00  0.00    +0.000 A 
ATOM     13  C   UNL     1       9.294   0.574   0.000  0.00  0.00    +0.000 A 
ENDROOT
BRANCH   5  18
ATOM     14  O   UNL     1       5.665   1.794   0.000  0.00  0.00    +0.000 OA
ATOM     15  O   UNL     1       3.522   0.556   0.000  0.00  0.00    +0.000 OA
ATOM     16  O   UNL     1       3.522   2.206   0.000  0.00  0.00    +0.000 OA
ATOM     17  C   UNL     1       4.951   0.556   0.000  0.00  0.00    +0.000 C 
ATOM     18  C   UNL     1       5.665   0.969   0.000  0.00  0.00    +0.000 C 
ATOM     19  C   UNL     1       4.236   0.969   0.000  0.00  0.00    +0.000 C 
ATOM     20  C   UNL     1       4.951   2.206   0.000  0.00  0.00    +0.000 C 
ATOM     21  C   UNL     1       4.236   1.794   0.000  0.00  0.00    +0.000 C 
ATOM     22  C   UNL     1       4.951   3.031   0.000  0.00  0.00    +0.000 C 
BRANCH  17  23
ATOM     23  O   UNL     1       4.951  -0.269   0.000  0.00  0.00    +0.000 OA
BRANCH  23  28
ATOM     24  O   UNL     1       3.522  -0.269   0.000  0.00  0.00    +0.000 OA
ATOM     25  O   UNL     1       4.951  -1.919   0.000  0.00  0.00    +0.000 OA
ATOM     26  O   UNL     1       3.522  -2.744   0.000  0.00  0.00    +0.000 OA
ATOM     27  O   UNL     1       2.093  -1.919   0.000  0.00  0.00    +0.000 OA
ATOM     28  C   UNL     1       4.236  -0.681   0.000  0.00  0.00    +0.000 C 
ATOM     29  C   UNL     1       4.236  -1.506   0.000  0.00  0.00    +0.000 C 
ATOM     30  C   UNL     1       3.522  -1.919   0.000  0.00  0.00    +0.000 C 
ATOM     31  C   UNL     1       2.808  -1.506   0.000  0.00  0.00    +0.000 C 
ATOM     32  C   UNL     1       2.808  -0.681   0.000  0.00  0.00    +0.000 C 
ATOM     33  C   UNL     1       2.093  -0.269   0.000  0.00  0.00    +0.000 C 
ENDBRANCH  23  28
ENDBRANCH  17  23
ENDBRANCH   5  18
BRANCH  12  35
ATOM     34  C   UNL     1      11.432  -1.532   0.000  0.00  0.00    +0.000 A 
ATOM     35  C   UNL     1      10.007  -0.701   0.000  0.00  0.00    +0.000 A 
ATOM     36  C   UNL     1      11.436  -0.707   0.000  0.00  0.00    +0.000 A 
ATOM     37  C   UNL     1      10.716  -1.941   0.000  0.00  0.00    +0.000 A 
ATOM     38  C   UNL     1      10.723  -0.291   0.000  0.00  0.00    +0.000 A 
ATOM     39  C   UNL     1      10.004  -1.526   0.000  0.00  0.00    +0.000 A 
BRANCH  34  40
ATOM     40  O   UNL     1      12.145  -1.947   0.000  0.00  0.00    +0.000 OA
BRANCH  40  49
ATOM     41  O   UNL     1      12.864  -0.712   0.000  0.00  0.00    +0.000 OA
ATOM     42  O   UNL     1      15.003  -1.958   0.000  0.00  0.00    +0.000 OA
ATOM     43  O   UNL     1      15.009  -0.308   0.000  0.00  0.00    +0.000 OA
ATOM     44  O   UNL     1      13.571  -2.777   0.000  0.00  0.00    +0.000 OA
ATOM     45  C   UNL     1      14.290  -1.543   0.000  0.00  0.00    +0.000 C 
ATOM     46  C   UNL     1      14.293  -0.718   0.000  0.00  0.00    +0.000 C 
ATOM     47  C   UNL     1      13.574  -1.952   0.000  0.00  0.00    +0.000 C 
ATOM     48  C   UNL     1      13.581  -0.302   0.000  0.00  0.00    +0.000 C 
ATOM     49  C   UNL     1      12.861  -1.537   0.000  0.00  0.00    +0.000 C 
BRANCH  48  52
ATOM     50  O   UNL     1      14.300   0.932   0.000  0.00  0.00    +0.000 OA
ATOM     51  O   UNL     1      12.871   0.938   0.000  0.00  0.00    +0.000 OA
ATOM     52  C   UNL     1      13.584   0.523   0.000  0.00  0.00    +0.000 C 
ENDBRANCH  48  52
ENDBRANCH  40  49
ENDBRANCH  34  40
ENDBRANCH  12  35
TORSDOF 7
