REMARK  Name = 42607881
REMARK  4 active torsions:
REMARK  status: ('A' for Active; 'I' for Inactive)
REMARK    1  A    between atoms: O_2  and  C_12
REMARK    2  A    between atoms: O_3  and  C_15
REMARK    3  A    between atoms: C_6  and  C_13
REMARK    4  A    between atoms: C_14  and  C_17
REMARK                            x       y       z     vdW  Elec       q    Type
REMARK                         _______ _______ _______ _____ _____    ______ ____
ROOT
ATOM      1  O   UNL     1       5.688  -0.842   0.000  0.00  0.00    +0.000 OA
ATOM      2  O   UNL     1       5.679   1.690   0.000  0.00  0.00    +0.000 OA
ATOM      3  C   UNL     1       6.436  -0.418   0.000  0.00  0.00    +0.000 C 
ATOM      4  C   UNL     1       6.436   0.441   0.000  0.00  0.00    +0.000 C 
ATOM      5  C   UNL     1       4.951   0.424   0.000  0.00  0.00    +0.000 A 
ATOM      6  C   UNL     1       4.951  -0.401   0.000  0.00  0.00    +0.000 A 
ATOM      7  C   UNL     1       5.688   0.865   0.000  0.00  0.00    +0.000 C 
ATOM      8  C   UNL     1       4.236  -0.814   0.000  0.00  0.00    +0.000 A 
ATOM      9  C   UNL     1       4.236   0.836   0.000  0.00  0.00    +0.000 A 
ATOM     10  C   UNL     1       3.522   0.424   0.000  0.00  0.00    +0.000 A 
ATOM     11  C   UNL     1       3.522  -0.401   0.000  0.00  0.00    +0.000 A 
ATOM     12  C   UNL     1       4.236  -1.639   0.000  0.00  0.00    +0.000 C 
ENDROOT
BRANCH   3  13
ATOM     13  C   UNL     1       7.149  -0.834   0.000  0.00  0.00    +0.000 A 
ATOM     14  C   UNL     1       7.146  -1.659   0.000  0.00  0.00    +0.000 A 
ATOM     15  C   UNL     1       7.865  -0.424   0.000  0.00  0.00    +0.000 A 
ATOM     16  C   UNL     1       7.859  -2.074   0.000  0.00  0.00    +0.000 A 
ATOM     17  C   UNL     1       8.578  -0.839   0.000  0.00  0.00    +0.000 A 
ATOM     18  C   UNL     1       8.575  -1.664   0.000  0.00  0.00    +0.000 A 
ENDBRANCH   3  13
BRANCH   9  19
ATOM     19  O   UNL     1       4.236   1.661   0.000  0.00  0.00    +0.000 OA
ATOM     20  C   UNL     1       3.522   2.074   0.000  0.00  0.00    +0.000 C 
ENDBRANCH   9  19
BRANCH  11  21
ATOM     21  O   UNL     1       2.808  -0.814   0.000  0.00  0.00    +0.000 OA
ATOM     22  C   UNL     1       2.808  -1.639   0.000  0.00  0.00    +0.000 C 
ENDBRANCH  11  21
BRANCH  10  24
ATOM     23  O   UNL     1       2.093   0.424   0.000  0.00  0.00    +0.000 OA
ATOM     24  C   UNL     1       2.808   0.836   0.000  0.00  0.00    +0.000 C 
ENDBRANCH  10  24
TORSDOF 4
