REMARK  Name = 2922801
REMARK  4 active torsions:
REMARK  status: ('A' for Active; 'I' for Inactive)
REMARK    1  A    between atoms: O_3  and  C_16
REMARK    2  A    between atoms: O_4  and  C_17
REMARK    3  A    between atoms: O_5  and  C_19
REMARK    4  A    between atoms: C_6  and  C_8
REMARK                            x       y       z     vdW  Elec       q    Type
REMARK                         _______ _______ _______ _____ _____    ______ ____
ROOT
ATOM      1  O   UNL     1       5.278   0.000   0.000  0.00  0.00    +0.000 OA
ATOM      2  O   UNL     1       5.278   2.475   0.000  0.00  0.00    +0.000 OA
ATOM      3  C   UNL     1       5.993   0.412   0.000  0.00  0.00    +0.000 C 
ATOM      4  C   UNL     1       5.993   1.238   0.000  0.00  0.00    +0.000 C 
ATOM      5  C   UNL     1       5.278   1.650   0.000  0.00  0.00    +0.000 C 
ATOM      6  C   UNL     1       4.564   1.238   0.000  0.00  0.00    +0.000 A 
ATOM      7  C   UNL     1       4.564   0.412   0.000  0.00  0.00    +0.000 A 
ATOM      8  C   UNL     1       3.826   1.679   0.000  0.00  0.00    +0.000 A 
ATOM      9  C   UNL     1       3.826  -0.029   0.000  0.00  0.00    +0.000 A 
ATOM     10  C   UNL     1       3.079   1.255   0.000  0.00  0.00    +0.000 A 
ATOM     11  C   UNL     1       3.079   0.395   0.000  0.00  0.00    +0.000 A 
ENDROOT
BRANCH   3  12
ATOM     12  C   UNL     1       6.707   0.000   0.000  0.00  0.00    +0.000 A 
ATOM     13  C   UNL     1       6.707  -0.825   0.000  0.00  0.00    +0.000 A 
ATOM     14  C   UNL     1       7.422   0.412   0.000  0.00  0.00    +0.000 A 
ATOM     15  C   UNL     1       7.422  -1.238   0.000  0.00  0.00    +0.000 A 
ATOM     16  C   UNL     1       8.136   0.000   0.000  0.00  0.00    +0.000 A 
ATOM     17  C   UNL     1       8.136  -0.825   0.000  0.00  0.00    +0.000 A 
BRANCH  15  18
ATOM     18  O   UNL     1       7.422  -2.062   0.000  0.00  0.00    +0.000 OA
ATOM     19  C   UNL     1       6.707  -2.475   0.000  0.00  0.00    +0.000 C 
ENDBRANCH  15  18
BRANCH  17  20
ATOM     20  O   UNL     1       8.851  -1.238   0.000  0.00  0.00    +0.000 OA
ATOM     21  C   UNL     1       9.565  -0.825   0.000  0.00  0.00    +0.000 C 
ENDBRANCH  17  20
ENDBRANCH   3  12
BRANCH  10  22
ATOM     22  O   UNL     1       2.366   1.670   0.000  0.00  0.00    +0.000 OA
ATOM     23  C   UNL     1       1.650   1.260   0.000  0.00  0.00    +0.000 C 
ENDBRANCH  10  22
TORSDOF 4
