REMARK  Name = 44259375
REMARK  7 active torsions:
REMARK  status: ('A' for Active; 'I' for Inactive)
REMARK    1  A    between atoms: O_2  and  C_16
REMARK    2  A    between atoms: O_2  and  C_21
REMARK    3  A    between atoms: O_3  and  C_18
REMARK    4  A    between atoms: O_3  and  C_20
REMARK    5  A    between atoms: O_12  and  C_34
REMARK    6  A    between atoms: C_17  and  C_19
REMARK    7  A    between atoms: C_22  and  C_26
REMARK                            x       y       z     vdW  Elec       q    Type
REMARK                         _______ _______ _______ _____ _____    ______ ____
ROOT
ATOM      1  O   UNL     1       6.380   1.080   0.000  0.00  0.00    +0.000 OA
ATOM      2  O   UNL     1       4.236  -0.157   0.000  0.00  0.00    +0.000 OA
ATOM      3  O   UNL     1       3.490   1.078   0.000  0.00  0.00    +0.000 OA
ATOM      4  O   UNL     1       4.941   3.612   0.000  0.00  0.00    +0.000 OA
ATOM      5  C   UNL     1       5.665  -0.157   0.000  0.00  0.00    +0.000 A 
ATOM      6  C   UNL     1       6.380   0.255   0.000  0.00  0.00    +0.000 A 
ATOM      7  C   UNL     1       4.951   0.255   0.000  0.00  0.00    +0.000 A 
ATOM      8  C   UNL     1       4.951   1.080   0.000  0.00  0.00    +0.000 A 
ATOM      9  C   UNL     1       5.665   1.493   0.000  0.00  0.00    +0.000 A 
ATOM     10  C   UNL     1       4.200   1.498   0.000  0.00  0.00    +0.000 A 
ATOM     11  C   UNL     1       5.679   2.352   0.000  0.00  0.00    +0.000 A 
ATOM     12  C   UNL     1       4.194   2.358   0.000  0.00  0.00    +0.000 A 
ATOM     13  C   UNL     1       4.938   2.787   0.000  0.00  0.00    +0.000 A 
ENDROOT
BRANCH   6  15
ATOM     14  O   UNL     1       9.238  -1.395   0.000  0.00  0.00    +0.000 OA
ATOM     15  C   UNL     1       7.094  -0.157   0.000  0.00  0.00    +0.000 A 
ATOM     16  C   UNL     1       7.809   0.255   0.000  0.00  0.00    +0.000 A 
ATOM     17  C   UNL     1       7.094  -0.982   0.000  0.00  0.00    +0.000 A 
ATOM     18  C   UNL     1       8.523  -0.157   0.000  0.00  0.00    +0.000 A 
ATOM     19  C   UNL     1       7.809  -1.395   0.000  0.00  0.00    +0.000 A 
ATOM     20  C   UNL     1       8.523  -0.982   0.000  0.00  0.00    +0.000 A 
BRANCH  18  21
ATOM     21  O   UNL     1       9.238   0.255   0.000  0.00  0.00    +0.000 OA
ATOM     22  C   UNL     1       9.238   1.080   0.000  0.00  0.00    +0.000 C 
ENDBRANCH  18  21
ENDBRANCH   6  15
BRANCH   5  23
ATOM     23  O   UNL     1       5.665  -0.982   0.000  0.00  0.00    +0.000 OA
BRANCH  23  31
ATOM     24  O   UNL     1       4.236  -0.982   0.000  0.00  0.00    +0.000 OA
ATOM     25  O   UNL     1       4.236  -3.457   0.000  0.00  0.00    +0.000 OA
ATOM     26  O   UNL     1       2.808  -2.632   0.000  0.00  0.00    +0.000 OA
ATOM     27  C   UNL     1       4.236  -2.632   0.000  0.00  0.00    +0.000 C 
ATOM     28  C   UNL     1       3.522  -2.220   0.000  0.00  0.00    +0.000 C 
ATOM     29  C   UNL     1       4.951  -2.220   0.000  0.00  0.00    +0.000 C 
ATOM     30  C   UNL     1       3.522  -1.395   0.000  0.00  0.00    +0.000 C 
ATOM     31  C   UNL     1       4.951  -1.395   0.000  0.00  0.00    +0.000 C 
BRANCH  30  33
ATOM     32  O   UNL     1       2.093  -1.395   0.000  0.00  0.00    +0.000 OA
ATOM     33  C   UNL     1       2.808  -0.982   0.000  0.00  0.00    +0.000 C 
ENDBRANCH  30  33
BRANCH  29  34
ATOM     34  O   UNL     1       5.665  -2.632   0.000  0.00  0.00    +0.000 OA
BRANCH  34  36
ATOM     35  O   UNL     1       4.951  -3.870   0.000  0.00  0.00    +0.000 OA
ATOM     36  C   UNL     1       5.665  -3.457   0.000  0.00  0.00    +0.000 C 
ATOM     37  C   UNL     1       6.380  -3.870   0.000  0.00  0.00    +0.000 C 
ENDBRANCH  34  36
ENDBRANCH  29  34
ENDBRANCH  23  31
ENDBRANCH   5  23
TORSDOF 7
