REMARK  Name = 44259818
REMARK  7 active torsions:
REMARK  status: ('A' for Active; 'I' for Inactive)
REMARK    1  A    between atoms: O_2  and  C_18
REMARK    2  A    between atoms: O_2  and  C_20
REMARK    3  A    between atoms: O_8  and  C_22
REMARK    4  A    between atoms: O_10  and  C_27
REMARK    5  A    between atoms: O_12  and  C_33
REMARK    6  A    between atoms: C_17  and  C_19
REMARK    7  A    between atoms: C_28  and  C_29
REMARK                            x       y       z     vdW  Elec       q    Type
REMARK                         _______ _______ _______ _____ _____    ______ ____
ROOT
ATOM      1  O   UNL     1       7.137   1.755   0.000  0.00  0.00    +0.000 OA
ATOM      2  O   UNL     1       4.225   1.809   0.000  0.00  0.00    +0.000 OA
ATOM      3  O   UNL     1       7.108  -0.720   0.000  0.00  0.00    +0.000 OA
ATOM      4  C   UNL     1       5.665   0.093   0.000  0.00  0.00    +0.000 A 
ATOM      5  C   UNL     1       6.408   0.526   0.000  0.00  0.00    +0.000 A 
ATOM      6  C   UNL     1       4.923   0.526   0.000  0.00  0.00    +0.000 A 
ATOM      7  C   UNL     1       6.417   1.351   0.000  0.00  0.00    +0.000 A 
ATOM      8  C   UNL     1       7.117   0.105   0.000  0.00  0.00    +0.000 A 
ATOM      9  C   UNL     1       4.933   1.385   0.000  0.00  0.00    +0.000 A 
ATOM     10  C   UNL     1       5.685   1.800   0.000  0.00  0.00    +0.000 A 
ATOM     11  C   UNL     1       7.837   0.509   0.000  0.00  0.00    +0.000 A 
ATOM     12  C   UNL     1       7.846   1.334   0.000  0.00  0.00    +0.000 A 
ENDROOT
BRANCH  12  14
ATOM     13  O   UNL     1      10.723   2.951   0.000  0.00  0.00    +0.000 OA
ATOM     14  C   UNL     1       8.566   1.738   0.000  0.00  0.00    +0.000 A 
ATOM     15  C   UNL     1       9.275   1.318   0.000  0.00  0.00    +0.000 A 
ATOM     16  C   UNL     1       8.575   2.563   0.000  0.00  0.00    +0.000 A 
ATOM     17  C   UNL     1       9.994   1.722   0.000  0.00  0.00    +0.000 A 
ATOM     18  C   UNL     1       9.294   2.967   0.000  0.00  0.00    +0.000 A 
ATOM     19  C   UNL     1      10.004   2.547   0.000  0.00  0.00    +0.000 A 
BRANCH  17  20
ATOM     20  O   UNL     1      10.704   1.301   0.000  0.00  0.00    +0.000 OA
ATOM     21  C   UNL     1      11.423   1.705   0.000  0.00  0.00    +0.000 C 
ENDBRANCH  17  20
ENDBRANCH  12  14
BRANCH   6  22
ATOM     22  O   UNL     1       4.205   0.119   0.000  0.00  0.00    +0.000 OA
ATOM     23  C   UNL     1       3.494   0.537   0.000  0.00  0.00    +0.000 C 
ENDBRANCH   6  22
BRANCH  11  24
ATOM     24  O   UNL     1       8.546   0.088   0.000  0.00  0.00    +0.000 OA
ATOM     25  C   UNL     1       8.537  -0.736   0.000  0.00  0.00    +0.000 C 
ENDBRANCH  11  24
BRANCH   4  26
ATOM     26  O   UNL     1       5.665  -0.732   0.000  0.00  0.00    +0.000 OA
BRANCH  26  35
ATOM     27  O   UNL     1       4.236  -0.732   0.000  0.00  0.00    +0.000 OA
ATOM     28  O   UNL     1       4.236  -3.207   0.000  0.00  0.00    +0.000 OA
ATOM     29  O   UNL     1       2.808  -2.382   0.000  0.00  0.00    +0.000 OA
ATOM     30  O   UNL     1       5.665  -2.382   0.000  0.00  0.00    +0.000 OA
ATOM     31  C   UNL     1       4.236  -2.382   0.000  0.00  0.00    +0.000 C 
ATOM     32  C   UNL     1       3.522  -1.969   0.000  0.00  0.00    +0.000 C 
ATOM     33  C   UNL     1       4.951  -1.969   0.000  0.00  0.00    +0.000 C 
ATOM     34  C   UNL     1       3.522  -1.144   0.000  0.00  0.00    +0.000 C 
ATOM     35  C   UNL     1       4.951  -1.144   0.000  0.00  0.00    +0.000 C 
BRANCH  34  37
ATOM     36  O   UNL     1       2.093  -1.144   0.000  0.00  0.00    +0.000 OA
ATOM     37  C   UNL     1       2.808  -0.732   0.000  0.00  0.00    +0.000 C 
ENDBRANCH  34  37
ENDBRANCH  26  35
ENDBRANCH   4  26
TORSDOF 7
