REMARK  Name = 44257522
REMARK  2 active torsions:
REMARK  status: ('A' for Active; 'I' for Inactive)
REMARK    1  A    between atoms: O_3  and  C_14
REMARK    2  A    between atoms: C_7  and  C_11
REMARK                            x       y       z     vdW  Elec       q    Type
REMARK                         _______ _______ _______ _____ _____    ______ ____
ROOT
ATOM      1  O   UNL     1       5.800  -1.879   0.000  0.00  0.00    +0.000 OA
ATOM      2  O   UNL     1       5.809   0.653   0.000  0.00  0.00    +0.000 OA
ATOM      3  O   UNL     1       8.747  -1.689   0.000  0.00  0.00    +0.000 OA
ATOM      4  C   UNL     1       5.052  -0.596   0.000  0.00  0.00    +0.000 C 
ATOM      5  C   UNL     1       5.800  -0.172   0.000  0.00  0.00    +0.000 C 
ATOM      6  C   UNL     1       5.052  -1.455   0.000  0.00  0.00    +0.000 C 
ATOM      7  C   UNL     1       6.537  -0.613   0.000  0.00  0.00    +0.000 A 
ATOM      8  C   UNL     1       6.537  -1.438   0.000  0.00  0.00    +0.000 A 
ATOM      9  C   UNL     1       7.252  -0.201   0.000  0.00  0.00    +0.000 A 
ATOM     10  C   UNL     1       7.252  -1.851   0.000  0.00  0.00    +0.000 A 
ATOM     11  C   UNL     1       7.966  -0.613   0.000  0.00  0.00    +0.000 A 
ATOM     12  C   UNL     1       7.966  -1.438   0.000  0.00  0.00    +0.000 A 
ATOM     13  C   UNL     1       8.747  -0.362   0.000  0.00  0.00    +0.000 A 
ATOM     14  C   UNL     1       9.228  -1.026   0.000  0.00  0.00    +0.000 A 
ENDROOT
BRANCH   4  17
ATOM     15  O   UNL     1       2.129  -0.423   0.000  0.00  0.00    +0.000 OA
ATOM     16  O   UNL     1       2.134   0.904   0.000  0.00  0.00    +0.000 OA
ATOM     17  C   UNL     1       4.339  -0.181   0.000  0.00  0.00    +0.000 A 
ATOM     18  C   UNL     1       4.343   0.644   0.000  0.00  0.00    +0.000 A 
ATOM     19  C   UNL     1       3.623  -0.590   0.000  0.00  0.00    +0.000 A 
ATOM     20  C   UNL     1       2.910  -0.175   0.000  0.00  0.00    +0.000 A 
ATOM     21  C   UNL     1       3.630   1.060   0.000  0.00  0.00    +0.000 A 
ATOM     22  C   UNL     1       2.914   0.650   0.000  0.00  0.00    +0.000 A 
ATOM     23  C   UNL     1       1.650   0.242   0.000  0.00  0.00    +0.000 C 
BRANCH  18  24
ATOM     24  O   UNL     1       5.059   1.054   0.000  0.00  0.00    +0.000 OA
ATOM     25  C   UNL     1       5.062   1.879   0.000  0.00  0.00    +0.000 C 
ENDBRANCH  18  24
ENDBRANCH   4  17
TORSDOF 2
