REMARK  Name = 44258402
REMARK  6 active torsions:
REMARK  status: ('A' for Active; 'I' for Inactive)
REMARK    1  A    between atoms: O_2  and  C_17
REMARK    2  A    between atoms: O_2  and  C_19
REMARK    3  A    between atoms: O_10  and  C_32
REMARK    4  A    between atoms: O_12  and  C_33
REMARK    5  A    between atoms: C_16  and  C_18
REMARK    6  A    between atoms: C_20  and  C_22
REMARK                            x       y       z     vdW  Elec       q    Type
REMARK                         _______ _______ _______ _____ _____    ______ ____
ROOT
ATOM      1  O   UNL     1       6.651   2.347   0.000  0.00  0.00    +0.000 OA
ATOM      2  C   UNL     1       5.222   0.697   0.000  0.00  0.00    +0.000 A 
ATOM      3  C   UNL     1       5.937   1.110   0.000  0.00  0.00    +0.000 A 
ATOM      4  C   UNL     1       4.508   1.110   0.000  0.00  0.00    +0.000 A 
ATOM      5  C   UNL     1       5.937   1.935   0.000  0.00  0.00    +0.000 A 
ATOM      6  C   UNL     1       4.508   1.935   0.000  0.00  0.00    +0.000 A 
ATOM      7  C   UNL     1       5.222   2.347   0.000  0.00  0.00    +0.000 A 
ENDROOT
BRANCH   3  11
ATOM      8  O   UNL     1       7.397   1.124   0.000  0.00  0.00    +0.000 OA
ATOM      9  O   UNL     1       7.416  -1.408   0.000  0.00  0.00    +0.000 OA
ATOM     10  O   UNL     1       8.859  -1.374   0.000  0.00  0.00    +0.000 OA
ATOM     11  C   UNL     1       6.651   0.697   0.000  0.00  0.00    +0.000 A 
ATOM     12  C   UNL     1       6.655  -0.162   0.000  0.00  0.00    +0.000 A 
ATOM     13  C   UNL     1       8.136   0.686   0.000  0.00  0.00    +0.000 A 
ATOM     14  C   UNL     1       8.139  -0.139   0.000  0.00  0.00    +0.000 A 
ATOM     15  C   UNL     1       7.404  -0.583   0.000  0.00  0.00    +0.000 A 
ATOM     16  C   UNL     1       8.856  -0.549   0.000  0.00  0.00    +0.000 A 
ATOM     17  C   UNL     1       8.849   1.101   0.000  0.00  0.00    +0.000 A 
ATOM     18  C   UNL     1       9.568  -0.134   0.000  0.00  0.00    +0.000 A 
ATOM     19  C   UNL     1       9.565   0.691   0.000  0.00  0.00    +0.000 A 
BRANCH  18  20
ATOM     20  O   UNL     1      10.284  -0.544   0.000  0.00  0.00    +0.000 OA
ATOM     21  C   UNL     1      10.997  -0.128   0.000  0.00  0.00    +0.000 C 
ENDBRANCH  18  20
BRANCH  19  22
ATOM     22  O   UNL     1      10.278   1.106   0.000  0.00  0.00    +0.000 OA
ATOM     23  C   UNL     1      10.275   1.931   0.000  0.00  0.00    +0.000 C 
ENDBRANCH  19  22
ENDBRANCH   3  11
BRANCH   2  24
ATOM     24  O   UNL     1       5.222  -0.128   0.000  0.00  0.00    +0.000 OA
BRANCH  24  33
ATOM     25  O   UNL     1       3.793  -0.128   0.000  0.00  0.00    +0.000 OA
ATOM     26  O   UNL     1       3.793  -2.603   0.000  0.00  0.00    +0.000 OA
ATOM     27  O   UNL     1       2.364  -1.778   0.000  0.00  0.00    +0.000 OA
ATOM     28  O   UNL     1       5.222  -1.778   0.000  0.00  0.00    +0.000 OA
ATOM     29  C   UNL     1       3.793  -1.778   0.000  0.00  0.00    +0.000 C 
ATOM     30  C   UNL     1       3.079  -1.365   0.000  0.00  0.00    +0.000 C 
ATOM     31  C   UNL     1       4.508  -1.365   0.000  0.00  0.00    +0.000 C 
ATOM     32  C   UNL     1       3.079  -0.540   0.000  0.00  0.00    +0.000 C 
ATOM     33  C   UNL     1       4.508  -0.540   0.000  0.00  0.00    +0.000 C 
BRANCH  32  35
ATOM     34  O   UNL     1       1.650  -0.540   0.000  0.00  0.00    +0.000 OA
ATOM     35  C   UNL     1       2.364  -0.128   0.000  0.00  0.00    +0.000 C 
ENDBRANCH  32  35
ENDBRANCH  24  33
ENDBRANCH   2  24
TORSDOF 6
