REMARK  Name = 44259824
REMARK  7 active torsions:
REMARK  status: ('A' for Active; 'I' for Inactive)
REMARK    1  A    between atoms: O_2  and  C_18
REMARK    2  A    between atoms: O_2  and  C_20
REMARK    3  A    between atoms: O_8  and  C_22
REMARK    4  A    between atoms: O_10  and  C_28
REMARK    5  A    between atoms: O_12  and  C_33
REMARK    6  A    between atoms: C_17  and  C_19
REMARK    7  A    between atoms: C_27  and  C_29
REMARK                            x       y       z     vdW  Elec       q    Type
REMARK                         _______ _______ _______ _____ _____    ______ ____
ROOT
ATOM      1  O   UNL     1       5.688   1.060   0.000  0.00  0.00    +0.000 OA
ATOM      2  O   UNL     1       7.125  -1.446   0.000  0.00  0.00    +0.000 OA
ATOM      3  O   UNL     1       7.827  -0.185   0.000  0.00  0.00    +0.000 OA
ATOM      4  C   UNL     1       5.665  -1.472   0.000  0.00  0.00    +0.000 A 
ATOM      5  C   UNL     1       6.408  -1.039   0.000  0.00  0.00    +0.000 A 
ATOM      6  C   UNL     1       4.923  -1.039   0.000  0.00  0.00    +0.000 A 
ATOM      7  C   UNL     1       6.398  -0.180   0.000  0.00  0.00    +0.000 A 
ATOM      8  C   UNL     1       5.685   0.235   0.000  0.00  0.00    +0.000 A 
ATOM      9  C   UNL     1       4.933  -0.180   0.000  0.00  0.00    +0.000 A 
ATOM     10  C   UNL     1       7.114   0.230   0.000  0.00  0.00    +0.000 A 
ATOM     11  C   UNL     1       6.404   1.470   0.000  0.00  0.00    +0.000 A 
ATOM     12  C   UNL     1       7.117   1.055   0.000  0.00  0.00    +0.000 A 
ENDROOT
BRANCH  11  14
ATOM     13  O   UNL     1       6.417   4.770   0.000  0.00  0.00    +0.000 OA
ATOM     14  C   UNL     1       6.407   2.295   0.000  0.00  0.00    +0.000 A 
ATOM     15  C   UNL     1       7.123   2.705   0.000  0.00  0.00    +0.000 A 
ATOM     16  C   UNL     1       5.695   2.710   0.000  0.00  0.00    +0.000 A 
ATOM     17  C   UNL     1       7.127   3.530   0.000  0.00  0.00    +0.000 A 
ATOM     18  C   UNL     1       5.698   3.535   0.000  0.00  0.00    +0.000 A 
ATOM     19  C   UNL     1       6.414   3.945   0.000  0.00  0.00    +0.000 A 
BRANCH  17  20
ATOM     20  O   UNL     1       7.843   3.939   0.000  0.00  0.00    +0.000 OA
ATOM     21  C   UNL     1       7.846   4.764   0.000  0.00  0.00    +0.000 C 
ENDBRANCH  17  20
ENDBRANCH  11  14
BRANCH   6  22
ATOM     22  O   UNL     1       4.205  -1.446   0.000  0.00  0.00    +0.000 OA
ATOM     23  C   UNL     1       3.494  -1.028   0.000  0.00  0.00    +0.000 C 
ENDBRANCH   6  22
BRANCH  12  24
ATOM     24  O   UNL     1       7.833   1.464   0.000  0.00  0.00    +0.000 OA
ATOM     25  C   UNL     1       8.546   1.049   0.000  0.00  0.00    +0.000 C 
ENDBRANCH  12  24
BRANCH   4  26
ATOM     26  O   UNL     1       5.665  -2.297   0.000  0.00  0.00    +0.000 OA
BRANCH  26  35
ATOM     27  O   UNL     1       4.236  -2.297   0.000  0.00  0.00    +0.000 OA
ATOM     28  O   UNL     1       4.236  -4.772   0.000  0.00  0.00    +0.000 OA
ATOM     29  O   UNL     1       2.808  -3.947   0.000  0.00  0.00    +0.000 OA
ATOM     30  O   UNL     1       5.665  -3.947   0.000  0.00  0.00    +0.000 OA
ATOM     31  C   UNL     1       4.236  -3.947   0.000  0.00  0.00    +0.000 C 
ATOM     32  C   UNL     1       3.522  -3.534   0.000  0.00  0.00    +0.000 C 
ATOM     33  C   UNL     1       4.951  -3.534   0.000  0.00  0.00    +0.000 C 
ATOM     34  C   UNL     1       3.522  -2.709   0.000  0.00  0.00    +0.000 C 
ATOM     35  C   UNL     1       4.951  -2.709   0.000  0.00  0.00    +0.000 C 
BRANCH  34  37
ATOM     36  O   UNL     1       2.093  -2.709   0.000  0.00  0.00    +0.000 OA
ATOM     37  C   UNL     1       2.808  -2.297   0.000  0.00  0.00    +0.000 C 
ENDBRANCH  34  37
ENDBRANCH  26  35
ENDBRANCH   4  26
TORSDOF 7
