REMARK  Name = 131831876
REMARK  12 active torsions:
REMARK  status: ('A' for Active; 'I' for Inactive)
REMARK    1  A    between atoms: O_1  and  C_22
REMARK    2  A    between atoms: O_1  and  C_26
REMARK    3  A    between atoms: O_7  and  C_28
REMARK    4  A    between atoms: O_7  and  C_34
REMARK    5  A    between atoms: O_10  and  C_32
REMARK    6  A    between atoms: O_10  and  C_41
REMARK    7  A    between atoms: O_12  and  C_38
REMARK    8  A    between atoms: O_12  and  C_46
REMARK    9  A    between atoms: C_23  and  C_31
REMARK   10  A    between atoms: C_29  and  C_32
REMARK   11  A    between atoms: C_37  and  C_42
REMARK   12  A    between atoms: C_49  and  C_50
REMARK                            x       y       z     vdW  Elec       q    Type
REMARK                         _______ _______ _______ _____ _____    ______ ____
ROOT
ATOM      1  O   UNL     1       8.100  -0.382   0.000  0.00  0.00    +0.000 OA
ATOM      2  O   UNL     1       5.211  -0.368   0.000  0.00  0.00    +0.000 OA
ATOM      3  O   UNL     1       5.961   0.864   0.000  0.00  0.00    +0.000 OA
ATOM      4  C   UNL     1       6.651  -2.084   0.000  0.00  0.00    +0.000 A 
ATOM      5  C   UNL     1       7.394  -1.651   0.000  0.00  0.00    +0.000 A 
ATOM      6  C   UNL     1       5.909  -1.651   0.000  0.00  0.00    +0.000 A 
ATOM      7  C   UNL     1       7.384  -0.792   0.000  0.00  0.00    +0.000 A 
ATOM      8  C   UNL     1       5.919  -0.792   0.000  0.00  0.00    +0.000 A 
ATOM      9  C   UNL     1       6.671  -0.377   0.000  0.00  0.00    +0.000 A 
ATOM     10  C   UNL     1       6.674   0.449   0.000  0.00  0.00    +0.000 A 
ATOM     11  C   UNL     1       8.103   0.443   0.000  0.00  0.00    +0.000 A 
ATOM     12  C   UNL     1       7.390   0.858   0.000  0.00  0.00    +0.000 A 
ENDROOT
BRANCH  11  14
ATOM     13  C   UNL     1      10.251   1.672   0.000  0.00  0.00    +0.000 A 
ATOM     14  C   UNL     1       8.819   0.853   0.000  0.00  0.00    +0.000 A 
ATOM     15  C   UNL     1       9.538   2.087   0.000  0.00  0.00    +0.000 A 
ATOM     16  C   UNL     1      10.248   0.847   0.000  0.00  0.00    +0.000 A 
ATOM     17  C   UNL     1       8.822   1.678   0.000  0.00  0.00    +0.000 A 
ATOM     18  C   UNL     1       9.532   0.437   0.000  0.00  0.00    +0.000 A 
BRANCH  13  19
ATOM     19  O   UNL     1      10.967   2.082   0.000  0.00  0.00    +0.000 OA
BRANCH  19  28
ATOM     20  O   UNL     1      11.687   3.317   0.000  0.00  0.00    +0.000 OA
ATOM     21  O   UNL     1       9.548   4.562   0.000  0.00  0.00    +0.000 OA
ATOM     22  O   UNL     1      10.980   5.382   0.000  0.00  0.00    +0.000 OA
ATOM     23  O   UNL     1       9.542   2.912   0.000  0.00  0.00    +0.000 OA
ATOM     24  C   UNL     1      10.261   4.147   0.000  0.00  0.00    +0.000 C 
ATOM     25  C   UNL     1      10.977   4.557   0.000  0.00  0.00    +0.000 C 
ATOM     26  C   UNL     1      10.258   3.322   0.000  0.00  0.00    +0.000 C 
ATOM     27  C   UNL     1      11.690   4.142   0.000  0.00  0.00    +0.000 C 
ATOM     28  C   UNL     1      10.970   2.907   0.000  0.00  0.00    +0.000 C 
BRANCH  27  31
ATOM     29  O   UNL     1      13.119   4.136   0.000  0.00  0.00    +0.000 OA
ATOM     30  O   UNL     1      12.409   5.376   0.000  0.00  0.00    +0.000 OA
ATOM     31  C   UNL     1      12.406   4.551   0.000  0.00  0.00    +0.000 C 
ENDBRANCH  27  31
ENDBRANCH  19  28
ENDBRANCH  13  19
ENDBRANCH  11  14
BRANCH   4  32
ATOM     32  O   UNL     1       6.651  -2.909   0.000  0.00  0.00    +0.000 OA
BRANCH  32  39
ATOM     33  O   UNL     1       5.222  -2.909   0.000  0.00  0.00    +0.000 OA
ATOM     34  O   UNL     1       5.222  -5.384   0.000  0.00  0.00    +0.000 OA
ATOM     35  O   UNL     1       3.793  -4.559   0.000  0.00  0.00    +0.000 OA
ATOM     36  C   UNL     1       5.937  -4.146   0.000  0.00  0.00    +0.000 C 
ATOM     37  C   UNL     1       5.222  -4.559   0.000  0.00  0.00    +0.000 C 
ATOM     38  C   UNL     1       4.508  -4.146   0.000  0.00  0.00    +0.000 C 
ATOM     39  C   UNL     1       5.937  -3.321   0.000  0.00  0.00    +0.000 C 
ATOM     40  C   UNL     1       4.508  -3.321   0.000  0.00  0.00    +0.000 C 
BRANCH  36  41
ATOM     41  O   UNL     1       6.651  -4.559   0.000  0.00  0.00    +0.000 OA
BRANCH  41  47
ATOM     42  O   UNL     1       7.452  -3.326   0.000  0.00  0.00    +0.000 OA
ATOM     43  O   UNL     1       9.386  -3.456   0.000  0.00  0.00    +0.000 OA
ATOM     44  O   UNL     1       8.291  -5.289   0.000  0.00  0.00    +0.000 OA
ATOM     45  C   UNL     1       8.671  -3.869   0.000  0.00  0.00    +0.000 C 
ATOM     46  C   UNL     1       8.120  -4.482   0.000  0.00  0.00    +0.000 C 
ATOM     47  C   UNL     1       7.366  -4.146   0.000  0.00  0.00    +0.000 C 
ATOM     48  C   UNL     1       8.259  -3.154   0.000  0.00  0.00    +0.000 C 
BRANCH  45  50
ATOM     49  O   UNL     1      10.069  -4.166   0.000  0.00  0.00    +0.000 OA
ATOM     50  C   UNL     1       9.284  -4.421   0.000  0.00  0.00    +0.000 C 
ENDBRANCH  45  50
ENDBRANCH  41  47
ENDBRANCH  36  41
BRANCH  40  51
ATOM     51  C   UNL     1       3.793  -2.909   0.000  0.00  0.00    +0.000 C 
BRANCH  51  52
ATOM     52  O   UNL     1       3.079  -3.321   0.000  0.00  0.00    +0.000 OA
BRANCH  52  54
ATOM     53  O   UNL     1       2.364  -2.084   0.000  0.00  0.00    +0.000 OA
ATOM     54  C   UNL     1       2.364  -2.909   0.000  0.00  0.00    +0.000 C 
ATOM     55  C   UNL     1       1.650  -3.321   0.000  0.00  0.00    +0.000 C 
ENDBRANCH  52  54
ENDBRANCH  51  52
ENDBRANCH  40  51
ENDBRANCH  32  39
ENDBRANCH   4  32
TORSDOF 12
