REMARK  Name = 131834275
REMARK  5 active torsions:
REMARK  status: ('A' for Active; 'I' for Inactive)
REMARK    1  A    between atoms: S_1  and  C_24
REMARK    2  A    between atoms: S_2  and  O_6
REMARK    3  A    between atoms: O_6  and  C_26
REMARK    4  A    between atoms: O_7  and  C_28
REMARK    5  A    between atoms: C_15  and  C_19
REMARK                            x       y       z     vdW  Elec       q    Type
REMARK                         _______ _______ _______ _____ _____    ______ ____
ROOT
ATOM      1  O   UNL     1       5.245   0.320   0.000  0.00  0.00    +0.000 OA
ATOM      2  O   UNL     1       6.706   2.018   0.000  0.00  0.00    +0.000 OA
ATOM      3  O   UNL     1       3.793   2.823   0.000  0.00  0.00    +0.000 OA
ATOM      4  O   UNL     1       2.364   1.998   0.000  0.00  0.00    +0.000 OA
ATOM      5  C   UNL     1       5.993   1.603   0.000  0.00  0.00    +0.000 C 
ATOM      6  C   UNL     1       5.993   0.744   0.000  0.00  0.00    +0.000 C 
ATOM      7  C   UNL     1       5.245   2.027   0.000  0.00  0.00    +0.000 C 
ATOM      8  C   UNL     1       4.508   1.586   0.000  0.00  0.00    +0.000 A 
ATOM      9  C   UNL     1       4.508   0.761   0.000  0.00  0.00    +0.000 A 
ATOM     10  C   UNL     1       3.793   1.998   0.000  0.00  0.00    +0.000 A 
ATOM     11  C   UNL     1       3.793   0.348   0.000  0.00  0.00    +0.000 A 
ATOM     12  C   UNL     1       3.079   0.761   0.000  0.00  0.00    +0.000 A 
ATOM     13  C   UNL     1       3.079   1.586   0.000  0.00  0.00    +0.000 A 
ENDROOT
BRANCH   6  14
ATOM     14  C   UNL     1       6.706   0.328   0.000  0.00  0.00    +0.000 A 
ATOM     15  C   UNL     1       6.703  -0.497   0.000  0.00  0.00    +0.000 A 
ATOM     16  C   UNL     1       7.422   0.738   0.000  0.00  0.00    +0.000 A 
ATOM     17  C   UNL     1       7.415  -0.912   0.000  0.00  0.00    +0.000 A 
ATOM     18  C   UNL     1       8.135   0.323   0.000  0.00  0.00    +0.000 A 
ATOM     19  C   UNL     1       8.132  -0.502   0.000  0.00  0.00    +0.000 A 
BRANCH  19  20
ATOM     20  O   UNL     1       8.844  -0.917   0.000  0.00  0.00    +0.000 OA
ATOM     21  C   UNL     1       9.560  -0.508   0.000  0.00  0.00    +0.000 C 
ENDBRANCH  19  20
BRANCH  17  22
ATOM     22  O   UNL     1       7.412  -1.737   0.000  0.00  0.00    +0.000 OA
BRANCH  22  23
ATOM     23  S   UNL     1       8.125  -2.152   0.000  0.00  0.00    +0.000 S 
ATOM     24  O   UNL     1       8.838  -2.567   0.000  0.00  0.00    +0.000 OA
ATOM     25  O   UNL     1       7.710  -2.865   0.000  0.00  0.00    +0.000 OA
ATOM     26  O   UNL     1       8.540  -1.439   0.000  0.00  0.00    +0.000 OA
ENDBRANCH  22  23
ENDBRANCH  17  22
ENDBRANCH   6  14
BRANCH  12  27
ATOM     27  S   UNL     1       2.364   0.348   0.000  0.00  0.00    +0.000 S 
ATOM     28  O   UNL     1       2.364  -0.477   0.000  0.00  0.00    +0.000 OA
ATOM     29  O   UNL     1       1.650   0.761   0.000  0.00  0.00    +0.000 OA
ENDBRANCH  12  27
TORSDOF 5
