REMARK  Name = 44258527
REMARK  3 active torsions:
REMARK  status: ('A' for Active; 'I' for Inactive)
REMARK    1  A    between atoms: O_2  and  C_17
REMARK    2  A    between atoms: O_2  and  C_19
REMARK    3  A    between atoms: C_26  and  C_28
REMARK                            x       y       z     vdW  Elec       q    Type
REMARK                         _______ _______ _______ _____ _____    ______ ____
ROOT
ATOM      1  O   UNL     1       6.403   1.462   0.000  0.00  0.00    +0.000 OA
ATOM      2  O   UNL     1       3.522  -0.217   0.000  0.00  0.00    +0.000 OA
ATOM      3  O   UNL     1       3.522   1.433   0.000  0.00  0.00    +0.000 OA
ATOM      4  O   UNL     1       6.393  -1.070   0.000  0.00  0.00    +0.000 OA
ATOM      5  C   UNL     1       4.951  -0.217   0.000  0.00  0.00    +0.000 A 
ATOM      6  C   UNL     1       5.665   0.196   0.000  0.00  0.00    +0.000 A 
ATOM      7  C   UNL     1       4.236   0.196   0.000  0.00  0.00    +0.000 A 
ATOM      8  C   UNL     1       5.665   1.021   0.000  0.00  0.00    +0.000 A 
ATOM      9  C   UNL     1       6.403  -0.245   0.000  0.00  0.00    +0.000 A 
ATOM     10  C   UNL     1       4.236   1.021   0.000  0.00  0.00    +0.000 A 
ATOM     11  C   UNL     1       4.951   1.433   0.000  0.00  0.00    +0.000 A 
ATOM     12  C   UNL     1       7.150   1.038   0.000  0.00  0.00    +0.000 A 
ATOM     13  C   UNL     1       7.150   0.179   0.000  0.00  0.00    +0.000 A 
ENDROOT
BRANCH  12  17
ATOM     14  O   UNL     1       8.570   3.518   0.000  0.00  0.00    +0.000 OA
ATOM     15  O   UNL     1      10.008   1.049   0.000  0.00  0.00    +0.000 OA
ATOM     16  O   UNL     1      10.002   2.699   0.000  0.00  0.00    +0.000 OA
ATOM     17  C   UNL     1       7.863   1.453   0.000  0.00  0.00    +0.000 A 
ATOM     18  C   UNL     1       8.579   1.044   0.000  0.00  0.00    +0.000 A 
ATOM     19  C   UNL     1       7.860   2.278   0.000  0.00  0.00    +0.000 A 
ATOM     20  C   UNL     1       8.573   2.693   0.000  0.00  0.00    +0.000 A 
ATOM     21  C   UNL     1       9.292   1.459   0.000  0.00  0.00    +0.000 A 
ATOM     22  C   UNL     1       9.289   2.284   0.000  0.00  0.00    +0.000 A 
ENDBRANCH  12  17
BRANCH   5  23
ATOM     23  O   UNL     1       4.951  -1.042   0.000  0.00  0.00    +0.000 OA
BRANCH  23  32
ATOM     24  O   UNL     1       3.522  -1.042   0.000  0.00  0.00    +0.000 OA
ATOM     25  O   UNL     1       3.522  -3.517   0.000  0.00  0.00    +0.000 OA
ATOM     26  O   UNL     1       2.093  -2.692   0.000  0.00  0.00    +0.000 OA
ATOM     27  O   UNL     1       4.951  -2.692   0.000  0.00  0.00    +0.000 OA
ATOM     28  C   UNL     1       3.522  -2.692   0.000  0.00  0.00    +0.000 C 
ATOM     29  C   UNL     1       2.808  -2.279   0.000  0.00  0.00    +0.000 C 
ATOM     30  C   UNL     1       4.236  -2.279   0.000  0.00  0.00    +0.000 C 
ATOM     31  C   UNL     1       2.808  -1.454   0.000  0.00  0.00    +0.000 C 
ATOM     32  C   UNL     1       4.236  -1.454   0.000  0.00  0.00    +0.000 C 
ATOM     33  C   UNL     1       2.093  -1.042   0.000  0.00  0.00    +0.000 C 
ENDBRANCH  23  32
ENDBRANCH   5  23
TORSDOF 3
