REMARK  Name = 44259829
REMARK  8 active torsions:
REMARK  status: ('A' for Active; 'I' for Inactive)
REMARK    1  A    between atoms: O_2  and  C_18
REMARK    2  A    between atoms: O_2  and  C_20
REMARK    3  A    between atoms: O_7  and  C_21
REMARK    4  A    between atoms: O_9  and  C_27
REMARK    5  A    between atoms: O_10  and  C_33
REMARK    6  A    between atoms: O_13  and  C_35
REMARK    7  A    between atoms: C_16  and  C_19
REMARK    8  A    between atoms: C_23  and  C_26
REMARK                            x       y       z     vdW  Elec       q    Type
REMARK                         _______ _______ _______ _____ _____    ______ ____
ROOT
ATOM      1  C   UNL     1       5.665  -1.552   0.000  0.00  0.00    +0.000 A 
ATOM      2  C   UNL     1       4.951  -1.140   0.000  0.00  0.00    +0.000 A 
ATOM      3  C   UNL     1       6.380  -1.140   0.000  0.00  0.00    +0.000 A 
ATOM      4  C   UNL     1       5.665   0.098   0.000  0.00  0.00    +0.000 A 
ATOM      5  C   UNL     1       4.951  -0.315   0.000  0.00  0.00    +0.000 A 
ATOM      6  C   UNL     1       6.380  -0.315   0.000  0.00  0.00    +0.000 A 
ENDROOT
BRANCH   4  10
ATOM      7  O   UNL     1       6.380   1.335   0.000  0.00  0.00    +0.000 OA
ATOM      8  O   UNL     1       4.236   2.573   0.000  0.00  0.00    +0.000 OA
ATOM      9  O   UNL     1       4.933   3.836   0.000  0.00  0.00    +0.000 OA
ATOM     10  C   UNL     1       5.665   0.923   0.000  0.00  0.00    +0.000 A 
ATOM     11  C   UNL     1       4.951   1.335   0.000  0.00  0.00    +0.000 A 
ATOM     12  C   UNL     1       5.665   2.573   0.000  0.00  0.00    +0.000 A 
ATOM     13  C   UNL     1       6.380   2.160   0.000  0.00  0.00    +0.000 A 
ATOM     14  C   UNL     1       4.951   2.160   0.000  0.00  0.00    +0.000 A 
ATOM     15  C   UNL     1       5.652   3.432   0.000  0.00  0.00    +0.000 A 
ATOM     16  C   UNL     1       7.131   2.579   0.000  0.00  0.00    +0.000 A 
ATOM     17  C   UNL     1       6.393   3.868   0.000  0.00  0.00    +0.000 A 
ATOM     18  C   UNL     1       7.137   3.438   0.000  0.00  0.00    +0.000 A 
BRANCH  11  19
ATOM     19  O   UNL     1       4.236   0.923   0.000  0.00  0.00    +0.000 OA
ATOM     20  C   UNL     1       3.522   1.335   0.000  0.00  0.00    +0.000 C 
ENDBRANCH  11  19
BRANCH  17  21
ATOM     21  O   UNL     1       6.390   4.693   0.000  0.00  0.00    +0.000 OA
ATOM     22  C   UNL     1       7.103   5.108   0.000  0.00  0.00    +0.000 C 
ENDBRANCH  17  21
BRANCH  18  23
ATOM     23  O   UNL     1       7.853   3.848   0.000  0.00  0.00    +0.000 OA
ATOM     24  C   UNL     1       8.566   3.432   0.000  0.00  0.00    +0.000 C 
ENDBRANCH  18  23
ENDBRANCH   4  10
BRANCH   2  25
ATOM     25  O   UNL     1       4.236  -1.552   0.000  0.00  0.00    +0.000 OA
ATOM     26  C   UNL     1       3.522  -1.140   0.000  0.00  0.00    +0.000 C 
ENDBRANCH   2  25
BRANCH   1  27
ATOM     27  O   UNL     1       5.665  -2.377   0.000  0.00  0.00    +0.000 OA
BRANCH  27  36
ATOM     28  O   UNL     1       4.236  -2.377   0.000  0.00  0.00    +0.000 OA
ATOM     29  O   UNL     1       4.236  -4.852   0.000  0.00  0.00    +0.000 OA
ATOM     30  O   UNL     1       2.808  -4.027   0.000  0.00  0.00    +0.000 OA
ATOM     31  O   UNL     1       5.665  -4.027   0.000  0.00  0.00    +0.000 OA
ATOM     32  C   UNL     1       4.236  -4.027   0.000  0.00  0.00    +0.000 C 
ATOM     33  C   UNL     1       3.522  -3.615   0.000  0.00  0.00    +0.000 C 
ATOM     34  C   UNL     1       3.522  -2.790   0.000  0.00  0.00    +0.000 C 
ATOM     35  C   UNL     1       4.951  -3.615   0.000  0.00  0.00    +0.000 C 
ATOM     36  C   UNL     1       4.951  -2.790   0.000  0.00  0.00    +0.000 C 
BRANCH  34  38
ATOM     37  O   UNL     1       2.093  -2.790   0.000  0.00  0.00    +0.000 OA
ATOM     38  C   UNL     1       2.808  -2.377   0.000  0.00  0.00    +0.000 C 
ENDBRANCH  34  38
ENDBRANCH  27  36
ENDBRANCH   1  27
TORSDOF 8
