REMARK  Name = 637885
REMARK  2 active torsions:
REMARK  status: ('A' for Active; 'I' for Inactive)
REMARK    1  A    between atoms: O_3  and  C_13
REMARK    2  A    between atoms: C_6  and  C_10
REMARK                            x       y       z     vdW  Elec       q    Type
REMARK                         _______ _______ _______ _____ _____    ______ ____
ROOT
ATOM      1  O   UNL     1       5.278  -0.206   0.000  0.00  0.00    +0.000 OA
ATOM      2  O   UNL     1       6.707   1.444   0.000  0.00  0.00    +0.000 OA
ATOM      3  C   UNL     1       5.993   1.031   0.000  0.00  0.00    +0.000 C 
ATOM      4  C   UNL     1       5.993   0.206   0.000  0.00  0.00    +0.000 C 
ATOM      5  C   UNL     1       5.278   1.444   0.000  0.00  0.00    +0.000 C 
ATOM      6  C   UNL     1       4.564   1.031   0.000  0.00  0.00    +0.000 A 
ATOM      7  C   UNL     1       4.564   0.206   0.000  0.00  0.00    +0.000 A 
ATOM      8  C   UNL     1       3.826  -0.235   0.000  0.00  0.00    +0.000 A 
ATOM      9  C   UNL     1       3.826   1.472   0.000  0.00  0.00    +0.000 A 
ATOM     10  C   UNL     1       3.079   0.189   0.000  0.00  0.00    +0.000 A 
ATOM     11  C   UNL     1       3.079   1.048   0.000  0.00  0.00    +0.000 A 
ATOM     12  C   UNL     1       3.836  -1.060   0.000  0.00  0.00    +0.000 C 
ENDROOT
BRANCH   4  14
ATOM     13  O   UNL     1       8.851  -1.444   0.000  0.00  0.00    +0.000 OA
ATOM     14  C   UNL     1       6.707  -0.206   0.000  0.00  0.00    +0.000 A 
ATOM     15  C   UNL     1       7.422   0.206   0.000  0.00  0.00    +0.000 A 
ATOM     16  C   UNL     1       6.707  -1.031   0.000  0.00  0.00    +0.000 A 
ATOM     17  C   UNL     1       8.136  -0.206   0.000  0.00  0.00    +0.000 A 
ATOM     18  C   UNL     1       7.422  -1.444   0.000  0.00  0.00    +0.000 A 
ATOM     19  C   UNL     1       8.136  -1.031   0.000  0.00  0.00    +0.000 A 
ENDBRANCH   4  14
BRANCH  10  20
ATOM     20  O   UNL     1       2.366  -0.226   0.000  0.00  0.00    +0.000 OA
ATOM     21  C   UNL     1       1.650   0.184   0.000  0.00  0.00    +0.000 C 
ENDBRANCH  10  20
TORSDOF 2
