REMARK  Name = 44258464
REMARK  4 active torsions:
REMARK  status: ('A' for Active; 'I' for Inactive)
REMARK    1  A    between atoms: O_2  and  C_15
REMARK    2  A    between atoms: O_2  and  C_17
REMARK    3  A    between atoms: O_7  and  C_18
REMARK    4  A    between atoms: C_24  and  C_26
REMARK                            x       y       z     vdW  Elec       q    Type
REMARK                         _______ _______ _______ _____ _____    ______ ____
ROOT
ATOM      1  O   UNL     1       6.416   1.101   0.000  0.00  0.00    +0.000 OA
ATOM      2  O   UNL     1       3.522   1.095   0.000  0.00  0.00    +0.000 OA
ATOM      3  O   UNL     1       4.218   2.359   0.000  0.00  0.00    +0.000 OA
ATOM      4  C   UNL     1       4.951  -0.555   0.000  0.00  0.00    +0.000 A 
ATOM      5  C   UNL     1       4.236  -0.142   0.000  0.00  0.00    +0.000 A 
ATOM      6  C   UNL     1       5.665  -0.142   0.000  0.00  0.00    +0.000 A 
ATOM      7  C   UNL     1       5.665   0.683   0.000  0.00  0.00    +0.000 A 
ATOM      8  C   UNL     1       4.951   1.095   0.000  0.00  0.00    +0.000 A 
ATOM      9  C   UNL     1       4.236   0.683   0.000  0.00  0.00    +0.000 A 
ATOM     10  C   UNL     1       4.938   1.954   0.000  0.00  0.00    +0.000 A 
ATOM     11  C   UNL     1       6.423   1.960   0.000  0.00  0.00    +0.000 A 
ATOM     12  C   UNL     1       5.678   2.390   0.000  0.00  0.00    +0.000 A 
ENDROOT
BRANCH  11  14
ATOM     13  O   UNL     1       9.287   3.599   0.000  0.00  0.00    +0.000 OA
ATOM     14  C   UNL     1       7.139   2.370   0.000  0.00  0.00    +0.000 A 
ATOM     15  C   UNL     1       7.142   3.195   0.000  0.00  0.00    +0.000 A 
ATOM     16  C   UNL     1       7.852   1.955   0.000  0.00  0.00    +0.000 A 
ATOM     17  C   UNL     1       7.858   3.605   0.000  0.00  0.00    +0.000 A 
ATOM     18  C   UNL     1       8.568   2.364   0.000  0.00  0.00    +0.000 A 
ATOM     19  C   UNL     1       8.571   3.189   0.000  0.00  0.00    +0.000 A 
ENDBRANCH  11  14
BRANCH   5  20
ATOM     20  O   UNL     1       3.522  -0.555   0.000  0.00  0.00    +0.000 OA
ATOM     21  C   UNL     1       2.808  -0.142   0.000  0.00  0.00    +0.000 C 
ENDBRANCH   5  20
BRANCH   4  22
ATOM     22  O   UNL     1       4.951  -1.380   0.000  0.00  0.00    +0.000 OA
BRANCH  22  31
ATOM     23  O   UNL     1       3.522  -1.380   0.000  0.00  0.00    +0.000 OA
ATOM     24  O   UNL     1       3.522  -3.855   0.000  0.00  0.00    +0.000 OA
ATOM     25  O   UNL     1       2.093  -3.030   0.000  0.00  0.00    +0.000 OA
ATOM     26  O   UNL     1       4.951  -3.030   0.000  0.00  0.00    +0.000 OA
ATOM     27  C   UNL     1       3.522  -3.030   0.000  0.00  0.00    +0.000 C 
ATOM     28  C   UNL     1       2.808  -2.617   0.000  0.00  0.00    +0.000 C 
ATOM     29  C   UNL     1       4.236  -2.617   0.000  0.00  0.00    +0.000 C 
ATOM     30  C   UNL     1       2.808  -1.792   0.000  0.00  0.00    +0.000 C 
ATOM     31  C   UNL     1       4.236  -1.792   0.000  0.00  0.00    +0.000 C 
ATOM     32  C   UNL     1       2.093  -1.380   0.000  0.00  0.00    +0.000 C 
ENDBRANCH  22  31
ENDBRANCH   4  22
TORSDOF 4
