REMARK  Name = 44257174
REMARK  2 active torsions:
REMARK  status: ('A' for Active; 'I' for Inactive)
REMARK    1  A    between atoms: O_2  and  C_12
REMARK    2  A    between atoms: C_4  and  C_9
REMARK                            x       y       z     vdW  Elec       q    Type
REMARK                         _______ _______ _______ _____ _____    ______ ____
ROOT
ATOM      1  O   UNL     1       5.278  -0.221   0.000  0.00  0.00    +0.000 OA
ATOM      2  C   UNL     1       5.993   0.192   0.000  0.00  0.00    +0.000 C 
ATOM      3  C   UNL     1       5.993   1.017   0.000  0.00  0.00    +0.000 C 
ATOM      4  C   UNL     1       5.278   1.429   0.000  0.00  0.00    +0.000 C 
ATOM      5  C   UNL     1       4.564   1.017   0.000  0.00  0.00    +0.000 A 
ATOM      6  C   UNL     1       4.564   0.192   0.000  0.00  0.00    +0.000 A 
ATOM      7  C   UNL     1       3.826  -0.249   0.000  0.00  0.00    +0.000 A 
ATOM      8  C   UNL     1       3.826   1.458   0.000  0.00  0.00    +0.000 A 
ATOM      9  C   UNL     1       3.079   0.175   0.000  0.00  0.00    +0.000 A 
ATOM     10  C   UNL     1       3.079   1.034   0.000  0.00  0.00    +0.000 A 
ATOM     11  C   UNL     1       3.836  -1.074   0.000  0.00  0.00    +0.000 C 
ENDROOT
BRANCH   2  13
ATOM     12  O   UNL     1       8.851  -1.458   0.000  0.00  0.00    +0.000 OA
ATOM     13  C   UNL     1       6.707  -0.221   0.000  0.00  0.00    +0.000 A 
ATOM     14  C   UNL     1       6.707  -1.046   0.000  0.00  0.00    +0.000 A 
ATOM     15  C   UNL     1       7.422   0.192   0.000  0.00  0.00    +0.000 A 
ATOM     16  C   UNL     1       7.422  -1.458   0.000  0.00  0.00    +0.000 A 
ATOM     17  C   UNL     1       8.136  -0.221   0.000  0.00  0.00    +0.000 A 
ATOM     18  C   UNL     1       8.136  -1.046   0.000  0.00  0.00    +0.000 A 
ENDBRANCH   2  13
BRANCH   9  19
ATOM     19  O   UNL     1       2.366  -0.240   0.000  0.00  0.00    +0.000 OA
ATOM     20  C   UNL     1       1.650   0.169   0.000  0.00  0.00    +0.000 C 
ENDBRANCH   9  19
TORSDOF 2
