REMARK  Name = 44258125
REMARK  8 active torsions:
REMARK  status: ('A' for Active; 'I' for Inactive)
REMARK    1  A    between atoms: O_4  and  C_17
REMARK    2  A    between atoms: O_4  and  C_19
REMARK    3  A    between atoms: O_6  and  C_18
REMARK    4  A    between atoms: O_6  and  C_21
REMARK    5  A    between atoms: C_15  and  C_18
REMARK    6  A    between atoms: C_20  and  C_21
REMARK    7  A    between atoms: C_20  and  C_24
REMARK    8  A    between atoms: C_31  and  C_33
REMARK                            x       y       z     vdW  Elec       q    Type
REMARK                         _______ _______ _______ _____ _____    ______ ____
ROOT
ATOM      1  O   UNL     1       9.529   1.141   0.000  0.00  0.00    +0.000 OA
ATOM      2  O   UNL     1       6.640   1.155   0.000  0.00  0.00    +0.000 OA
ATOM      3  O   UNL     1       7.390   2.387   0.000  0.00  0.00    +0.000 OA
ATOM      4  C   UNL     1       8.080  -0.561   0.000  0.00  0.00    +0.000 A 
ATOM      5  C   UNL     1       8.823  -0.128   0.000  0.00  0.00    +0.000 A 
ATOM      6  C   UNL     1       7.338  -0.128   0.000  0.00  0.00    +0.000 A 
ATOM      7  C   UNL     1       8.813   0.731   0.000  0.00  0.00    +0.000 A 
ATOM      8  C   UNL     1       8.100   1.146   0.000  0.00  0.00    +0.000 A 
ATOM      9  C   UNL     1       7.348   0.731   0.000  0.00  0.00    +0.000 A 
ATOM     10  C   UNL     1       8.103   1.971   0.000  0.00  0.00    +0.000 A 
ATOM     11  C   UNL     1       9.532   1.966   0.000  0.00  0.00    +0.000 A 
ATOM     12  C   UNL     1       8.819   2.381   0.000  0.00  0.00    +0.000 A 
ENDROOT
BRANCH  11  15
ATOM     13  O   UNL     1      12.390   1.955   0.000  0.00  0.00    +0.000 OA
ATOM     14  O   UNL     1      12.396   3.605   0.000  0.00  0.00    +0.000 OA
ATOM     15  C   UNL     1      10.248   2.376   0.000  0.00  0.00    +0.000 A 
ATOM     16  C   UNL     1      10.961   1.960   0.000  0.00  0.00    +0.000 A 
ATOM     17  C   UNL     1      10.251   3.201   0.000  0.00  0.00    +0.000 A 
ATOM     18  C   UNL     1      11.677   2.370   0.000  0.00  0.00    +0.000 A 
ATOM     19  C   UNL     1      10.967   3.610   0.000  0.00  0.00    +0.000 A 
ATOM     20  C   UNL     1      11.680   3.195   0.000  0.00  0.00    +0.000 A 
ENDBRANCH  11  15
BRANCH   4  21
ATOM     21  O   UNL     1       8.080  -1.386   0.000  0.00  0.00    +0.000 OA
BRANCH  21  30
ATOM     22  O   UNL     1       6.651  -1.386   0.000  0.00  0.00    +0.000 OA
ATOM     23  O   UNL     1       5.222  -3.036   0.000  0.00  0.00    +0.000 OA
ATOM     24  O   UNL     1       6.651  -3.861   0.000  0.00  0.00    +0.000 OA
ATOM     25  O   UNL     1       8.080  -3.036   0.000  0.00  0.00    +0.000 OA
ATOM     26  C   UNL     1       5.937  -2.623   0.000  0.00  0.00    +0.000 C 
ATOM     27  C   UNL     1       6.651  -3.036   0.000  0.00  0.00    +0.000 C 
ATOM     28  C   UNL     1       5.937  -1.798   0.000  0.00  0.00    +0.000 C 
ATOM     29  C   UNL     1       7.366  -2.623   0.000  0.00  0.00    +0.000 C 
ATOM     30  C   UNL     1       7.366  -1.798   0.000  0.00  0.00    +0.000 C 
BRANCH  28  31
ATOM     31  C   UNL     1       5.222  -1.386   0.000  0.00  0.00    +0.000 C 
BRANCH  31  32
ATOM     32  O   UNL     1       4.508  -1.798   0.000  0.00  0.00    +0.000 OA
BRANCH  32  34
ATOM     33  O   UNL     1       3.793  -0.561   0.000  0.00  0.00    +0.000 OA
ATOM     34  C   UNL     1       3.793  -1.386   0.000  0.00  0.00    +0.000 C 
BRANCH  34  35
ATOM     35  C   UNL     1       3.079  -1.798   0.000  0.00  0.00    +0.000 C 
ATOM     36  C   UNL     1       3.079  -2.623   0.000  0.00  0.00    +0.000 C 
BRANCH  35  37
ATOM     37  C   UNL     1       2.364  -1.386   0.000  0.00  0.00    +0.000 C 
ATOM     38  C   UNL     1       1.650  -1.798   0.000  0.00  0.00    +0.000 C 
ENDBRANCH  35  37
ENDBRANCH  34  35
ENDBRANCH  32  34
ENDBRANCH  31  32
ENDBRANCH  28  31
ENDBRANCH  21  30
ENDBRANCH   4  21
TORSDOF 8
