REMARK  Name = 44257860
REMARK  11 active torsions:
REMARK  status: ('A' for Active; 'I' for Inactive)
REMARK    1  A    between atoms: O_2  and  C_21
REMARK    2  A    between atoms: O_2  and  C_25
REMARK    3  A    between atoms: O_4  and  C_18
REMARK    4  A    between atoms: O_4  and  C_29
REMARK    5  A    between atoms: O_6  and  C_24
REMARK    6  A    between atoms: O_6  and  C_30
REMARK    7  A    between atoms: O_15  and  C_49
REMARK    8  A    between atoms: C_17  and  C_25
REMARK    9  A    between atoms: C_29  and  C_33
REMARK   10  A    between atoms: C_37  and  C_41
REMARK   11  A    between atoms: C_39  and  C_42
REMARK                            x       y       z     vdW  Elec       q    Type
REMARK                         _______ _______ _______ _____ _____    ______ ____
ROOT
ATOM      1  O   UNL     1       6.651  -1.316   0.000  0.00  0.00    +0.000 OA
ATOM      2  O   UNL     1       6.651   1.159   0.000  0.00  0.00    +0.000 OA
ATOM      3  O   UNL     1       8.080   0.334   0.000  0.00  0.00    +0.000 OA
ATOM      4  C   UNL     1       5.937  -0.903   0.000  0.00  0.00    +0.000 C 
ATOM      5  C   UNL     1       5.937  -0.078   0.000  0.00  0.00    +0.000 C 
ATOM      6  C   UNL     1       6.651   0.334   0.000  0.00  0.00    +0.000 C 
ATOM      7  C   UNL     1       7.366  -0.078   0.000  0.00  0.00    +0.000 C 
ATOM      8  C   UNL     1       7.366  -0.903   0.000  0.00  0.00    +0.000 C 
ENDROOT
BRANCH   5   9
ATOM      9  O   UNL     1       5.222   0.334   0.000  0.00  0.00    +0.000 OA
BRANCH   9  11
ATOM     10  O   UNL     1       5.937   1.572   0.000  0.00  0.00    +0.000 OA
ATOM     11  C   UNL     1       5.222   1.159   0.000  0.00  0.00    +0.000 C 
BRANCH  11  12
ATOM     12  C   UNL     1       4.508   1.572   0.000  0.00  0.00    +0.000 C 
ATOM     13  C   UNL     1       4.508   2.397   0.000  0.00  0.00    +0.000 C 
BRANCH  13  14
ATOM     14  C   UNL     1       3.793   2.809   0.000  0.00  0.00    +0.000 A 
ATOM     15  C   UNL     1       3.079   2.397   0.000  0.00  0.00    +0.000 A 
ATOM     16  C   UNL     1       3.793   3.634   0.000  0.00  0.00    +0.000 A 
ATOM     17  C   UNL     1       2.364   2.809   0.000  0.00  0.00    +0.000 A 
ATOM     18  C   UNL     1       3.079   4.047   0.000  0.00  0.00    +0.000 A 
ATOM     19  C   UNL     1       2.364   3.634   0.000  0.00  0.00    +0.000 A 
BRANCH  19  20
ATOM     20  O   UNL     1       1.650   4.047   0.000  0.00  0.00    +0.000 OA
ATOM     21  C   UNL     1       1.650   4.872   0.000  0.00  0.00    +0.000 C 
ENDBRANCH  19  20
ENDBRANCH  13  14
ENDBRANCH  11  12
ENDBRANCH   9  11
ENDBRANCH   5   9
BRANCH   8  22
ATOM     22  O   UNL     1       8.080  -1.316   0.000  0.00  0.00    +0.000 OA
BRANCH  22  26
ATOM     23  O   UNL     1      10.993  -1.307   0.000  0.00  0.00    +0.000 OA
ATOM     24  O   UNL     1       9.560   1.202   0.000  0.00  0.00    +0.000 OA
ATOM     25  O   UNL     1      11.002   1.168   0.000  0.00  0.00    +0.000 OA
ATOM     26  C   UNL     1       8.795  -0.903   0.000  0.00  0.00    +0.000 A 
ATOM     27  C   UNL     1       9.540  -1.330   0.000  0.00  0.00    +0.000 A 
ATOM     28  C   UNL     1       8.798  -0.044   0.000  0.00  0.00    +0.000 A 
ATOM     29  C   UNL     1      10.280  -0.892   0.000  0.00  0.00    +0.000 A 
ATOM     30  C   UNL     1       9.547   0.377   0.000  0.00  0.00    +0.000 A 
ATOM     31  C   UNL     1      10.283  -0.067   0.000  0.00  0.00    +0.000 A 
ATOM     32  C   UNL     1      10.999   0.343   0.000  0.00  0.00    +0.000 A 
ATOM     33  C   UNL     1      11.709  -0.897   0.000  0.00  0.00    +0.000 A 
ATOM     34  C   UNL     1      11.712  -0.072   0.000  0.00  0.00    +0.000 A 
BRANCH  33  36
ATOM     35  O   UNL     1      14.560  -2.558   0.000  0.00  0.00    +0.000 OA
ATOM     36  C   UNL     1      12.422  -1.313   0.000  0.00  0.00    +0.000 A 
ATOM     37  C   UNL     1      13.138  -0.903   0.000  0.00  0.00    +0.000 A 
ATOM     38  C   UNL     1      12.418  -2.138   0.000  0.00  0.00    +0.000 A 
ATOM     39  C   UNL     1      13.851  -1.318   0.000  0.00  0.00    +0.000 A 
ATOM     40  C   UNL     1      13.131  -2.553   0.000  0.00  0.00    +0.000 A 
ATOM     41  C   UNL     1      13.847  -2.143   0.000  0.00  0.00    +0.000 A 
ENDBRANCH  33  36
ENDBRANCH  22  26
ENDBRANCH   8  22
BRANCH   4  42
ATOM     42  C   UNL     1       5.222  -1.316   0.000  0.00  0.00    +0.000 C 
BRANCH  42  43
ATOM     43  O   UNL     1       5.222  -2.141   0.000  0.00  0.00    +0.000 OA
BRANCH  43  48
ATOM     44  O   UNL     1       3.793  -2.141   0.000  0.00  0.00    +0.000 OA
ATOM     45  O   UNL     1       5.222  -3.791   0.000  0.00  0.00    +0.000 OA
ATOM     46  O   UNL     1       3.793  -4.616   0.000  0.00  0.00    +0.000 OA
ATOM     47  O   UNL     1       2.364  -3.791   0.000  0.00  0.00    +0.000 OA
ATOM     48  C   UNL     1       4.508  -2.553   0.000  0.00  0.00    +0.000 C 
ATOM     49  C   UNL     1       4.508  -3.378   0.000  0.00  0.00    +0.000 C 
ATOM     50  C   UNL     1       3.793  -3.791   0.000  0.00  0.00    +0.000 C 
ATOM     51  C   UNL     1       3.079  -3.378   0.000  0.00  0.00    +0.000 C 
ATOM     52  C   UNL     1       3.079  -2.553   0.000  0.00  0.00    +0.000 C 
ATOM     53  C   UNL     1       2.364  -2.141   0.000  0.00  0.00    +0.000 C 
ENDBRANCH  43  48
ENDBRANCH  42  43
ENDBRANCH   4  42
TORSDOF 11
