REMARK  Name = 131832811
REMARK  10 active torsions:
REMARK  status: ('A' for Active; 'I' for Inactive)
REMARK    1  A    between atoms: O_1  and  C_26
REMARK    2  A    between atoms: O_1  and  C_32
REMARK    3  A    between atoms: C_17  and  C_25
REMARK    4  A    between atoms: C_18  and  C_24
REMARK    5  A    between atoms: C_19  and  C_23
REMARK    6  A    between atoms: C_25  and  C_29
REMARK    7  A    between atoms: C_36  and  C_48
REMARK    8  A    between atoms: C_38  and  C_49
REMARK    9  A    between atoms: C_48  and  C_53
REMARK   10  A    between atoms: C_56  and  C_57
REMARK                            x       y       z     vdW  Elec       q    Type
REMARK                         _______ _______ _______ _____ _____    ______ ____
ROOT
ATOM      1  O   UNL     1       7.094   0.491   0.000  0.00  0.00    +0.000 OA
ATOM      2  C   UNL     1       6.380  -0.747   0.000  0.00  0.00    +0.000 A 
ATOM      3  C   UNL     1       5.665  -1.159   0.000  0.00  0.00    +0.000 A 
ATOM      4  C   UNL     1       6.380   0.078   0.000  0.00  0.00    +0.000 A 
ATOM      5  C   UNL     1       5.665   0.491   0.000  0.00  0.00    +0.000 A 
ATOM      6  C   UNL     1       4.951  -0.747   0.000  0.00  0.00    +0.000 A 
ATOM      7  C   UNL     1       4.951   0.078   0.000  0.00  0.00    +0.000 A 
ENDROOT
BRANCH   2  10
ATOM      8  C   UNL     1       7.723  -1.235   0.000  0.00  0.00    +0.000 C 
ATOM      9  C   UNL     1       8.253  -1.867   0.000  0.00  0.00    +0.000 C 
ATOM     10  C   UNL     1       6.910  -1.379   0.000  0.00  0.00    +0.000 C 
ATOM     11  C   UNL     1       7.971  -2.643   0.000  0.00  0.00    +0.000 C 
ATOM     12  C   UNL     1       6.628  -2.154   0.000  0.00  0.00    +0.000 C 
ATOM     13  C   UNL     1       7.158  -2.786   0.000  0.00  0.00    +0.000 C 
ATOM     14  C   UNL     1       6.876  -3.561   0.000  0.00  0.00    +0.000 C 
BRANCH   9  17
ATOM     15  O   UNL     1       9.313  -3.131   0.000  0.00  0.00    +0.000 OA
ATOM     16  O   UNL     1      11.503  -1.294   0.000  0.00  0.00    +0.000 OA
ATOM     17  C   UNL     1       9.065  -1.724   0.000  0.00  0.00    +0.000 A 
ATOM     18  C   UNL     1       9.596  -2.356   0.000  0.00  0.00    +0.000 A 
ATOM     19  C   UNL     1       9.348  -0.949   0.000  0.00  0.00    +0.000 A 
ATOM     20  C   UNL     1      10.408  -2.213   0.000  0.00  0.00    +0.000 A 
ATOM     21  C   UNL     1      10.160  -0.806   0.000  0.00  0.00    +0.000 A 
ATOM     22  C   UNL     1      10.690  -1.438   0.000  0.00  0.00    +0.000 A 
ENDBRANCH   9  17
BRANCH   8  24
ATOM     23  O   UNL     1       6.910  -0.267   0.000  0.00  0.00    +0.000 OA
ATOM     24  C   UNL     1       7.723  -0.410   0.000  0.00  0.00    +0.000 C 
BRANCH  24  27
ATOM     25  O   UNL     1      10.617   1.245   0.000  0.00  0.00    +0.000 OA
ATOM     26  O   UNL     1       7.723   1.240   0.000  0.00  0.00    +0.000 OA
ATOM     27  C   UNL     1       8.437   0.002   0.000  0.00  0.00    +0.000 A 
ATOM     28  C   UNL     1       8.437   0.827   0.000  0.00  0.00    +0.000 A 
ATOM     29  C   UNL     1       9.152  -0.410   0.000  0.00  0.00    +0.000 A 
ATOM     30  C   UNL     1       9.152   1.240   0.000  0.00  0.00    +0.000 A 
ATOM     31  C   UNL     1       9.866   0.827   0.000  0.00  0.00    +0.000 A 
ATOM     32  C   UNL     1       9.866   0.002   0.000  0.00  0.00    +0.000 A 
ATOM     33  C   UNL     1      10.623   2.105   0.000  0.00  0.00    +0.000 C 
ATOM     34  C   UNL     1       9.138   2.099   0.000  0.00  0.00    +0.000 C 
ATOM     35  C   UNL     1       9.879   2.534   0.000  0.00  0.00    +0.000 C 
ATOM     36  C   UNL     1      11.039   2.817   0.000  0.00  0.00    +0.000 C 
ATOM     37  C   UNL     1      11.448   2.101   0.000  0.00  0.00    +0.000 C 
ENDBRANCH  24  27
ENDBRANCH   8  24
ENDBRANCH   2  10
BRANCH   5  39
ATOM     38  O   UNL     1       6.380   1.728   0.000  0.00  0.00    +0.000 OA
ATOM     39  C   UNL     1       5.665   1.316   0.000  0.00  0.00    +0.000 C 
BRANCH  39  40
ATOM     40  C   UNL     1       4.951   1.728   0.000  0.00  0.00    +0.000 C 
ATOM     41  C   UNL     1       4.951   2.553   0.000  0.00  0.00    +0.000 C 
BRANCH  41  44
ATOM     42  O   UNL     1       3.522   1.728   0.000  0.00  0.00    +0.000 OA
ATOM     43  O   UNL     1       2.093   4.203   0.000  0.00  0.00    +0.000 OA
ATOM     44  C   UNL     1       4.236   2.966   0.000  0.00  0.00    +0.000 A 
ATOM     45  C   UNL     1       3.522   2.553   0.000  0.00  0.00    +0.000 A 
ATOM     46  C   UNL     1       4.236   3.791   0.000  0.00  0.00    +0.000 A 
ATOM     47  C   UNL     1       2.808   2.966   0.000  0.00  0.00    +0.000 A 
ATOM     48  C   UNL     1       3.522   4.203   0.000  0.00  0.00    +0.000 A 
ATOM     49  C   UNL     1       2.808   3.791   0.000  0.00  0.00    +0.000 A 
ENDBRANCH  41  44
ENDBRANCH  39  40
ENDBRANCH   5  39
BRANCH   3  50
ATOM     50  O   UNL     1       5.665  -1.984   0.000  0.00  0.00    +0.000 OA
BRANCH  50  55
ATOM     51  O   UNL     1       4.236  -1.984   0.000  0.00  0.00    +0.000 OA
ATOM     52  O   UNL     1       5.665  -3.634   0.000  0.00  0.00    +0.000 OA
ATOM     53  O   UNL     1       4.236  -4.459   0.000  0.00  0.00    +0.000 OA
ATOM     54  O   UNL     1       2.808  -3.634   0.000  0.00  0.00    +0.000 OA
ATOM     55  C   UNL     1       4.951  -2.397   0.000  0.00  0.00    +0.000 C 
ATOM     56  C   UNL     1       4.951  -3.222   0.000  0.00  0.00    +0.000 C 
ATOM     57  C   UNL     1       4.236  -3.634   0.000  0.00  0.00    +0.000 C 
ATOM     58  C   UNL     1       3.522  -3.222   0.000  0.00  0.00    +0.000 C 
ATOM     59  C   UNL     1       3.522  -2.397   0.000  0.00  0.00    +0.000 C 
BRANCH  59  62
ATOM     60  O   UNL     1       2.093  -2.397   0.000  0.00  0.00    +0.000 OA
ATOM     61  O   UNL     1       2.808  -1.159   0.000  0.00  0.00    +0.000 OA
ATOM     62  C   UNL     1       2.808  -1.984   0.000  0.00  0.00    +0.000 C 
ENDBRANCH  59  62
ENDBRANCH  50  55
ENDBRANCH   3  50
TORSDOF 10
