REMARK  Name = 44257999
REMARK  6 active torsions:
REMARK  status: ('A' for Active; 'I' for Inactive)
REMARK    1  A    between atoms: O_2  and  C_18
REMARK    2  A    between atoms: O_2  and  C_20
REMARK    3  A    between atoms: O_6  and  C_19
REMARK    4  A    between atoms: O_6  and  C_26
REMARK    5  A    between atoms: C_16  and  C_19
REMARK    6  A    between atoms: C_28  and  C_31
REMARK                            x       y       z     vdW  Elec       q    Type
REMARK                         _______ _______ _______ _____ _____    ______ ____
ROOT
ATOM      1  O   UNL     1       8.100   1.141   0.000  0.00  0.00    +0.000 OA
ATOM      2  O   UNL     1       5.211   1.155   0.000  0.00  0.00    +0.000 OA
ATOM      3  O   UNL     1       7.394   3.206   0.000  0.00  0.00    +0.000 OA
ATOM      4  O   UNL     1       5.961   2.387   0.000  0.00  0.00    +0.000 OA
ATOM      5  C   UNL     1       6.651  -0.561   0.000  0.00  0.00    +0.000 A 
ATOM      6  C   UNL     1       7.394  -0.128   0.000  0.00  0.00    +0.000 A 
ATOM      7  C   UNL     1       5.909  -0.128   0.000  0.00  0.00    +0.000 A 
ATOM      8  C   UNL     1       7.384   0.731   0.000  0.00  0.00    +0.000 A 
ATOM      9  C   UNL     1       6.671   1.146   0.000  0.00  0.00    +0.000 A 
ATOM     10  C   UNL     1       5.919   0.731   0.000  0.00  0.00    +0.000 A 
ATOM     11  C   UNL     1       6.674   1.971   0.000  0.00  0.00    +0.000 A 
ATOM     12  C   UNL     1       8.103   1.966   0.000  0.00  0.00    +0.000 A 
ATOM     13  C   UNL     1       7.390   2.381   0.000  0.00  0.00    +0.000 A 
ENDROOT
BRANCH  12  16
ATOM     14  O   UNL     1      10.961   1.955   0.000  0.00  0.00    +0.000 OA
ATOM     15  O   UNL     1      10.967   3.605   0.000  0.00  0.00    +0.000 OA
ATOM     16  C   UNL     1       8.819   2.376   0.000  0.00  0.00    +0.000 A 
ATOM     17  C   UNL     1       9.532   1.960   0.000  0.00  0.00    +0.000 A 
ATOM     18  C   UNL     1       8.822   3.201   0.000  0.00  0.00    +0.000 A 
ATOM     19  C   UNL     1      10.248   2.370   0.000  0.00  0.00    +0.000 A 
ATOM     20  C   UNL     1       9.538   3.610   0.000  0.00  0.00    +0.000 A 
ATOM     21  C   UNL     1      10.251   3.195   0.000  0.00  0.00    +0.000 A 
ENDBRANCH  12  16
BRANCH   5  22
ATOM     22  O   UNL     1       6.651  -1.386   0.000  0.00  0.00    +0.000 OA
BRANCH  22  31
ATOM     23  O   UNL     1       5.222  -1.386   0.000  0.00  0.00    +0.000 OA
ATOM     24  O   UNL     1       3.793  -3.036   0.000  0.00  0.00    +0.000 OA
ATOM     25  O   UNL     1       5.222  -3.861   0.000  0.00  0.00    +0.000 OA
ATOM     26  O   UNL     1       6.651  -3.036   0.000  0.00  0.00    +0.000 OA
ATOM     27  C   UNL     1       4.508  -2.623   0.000  0.00  0.00    +0.000 C 
ATOM     28  C   UNL     1       5.222  -3.036   0.000  0.00  0.00    +0.000 C 
ATOM     29  C   UNL     1       4.508  -1.798   0.000  0.00  0.00    +0.000 C 
ATOM     30  C   UNL     1       5.937  -2.623   0.000  0.00  0.00    +0.000 C 
ATOM     31  C   UNL     1       5.937  -1.798   0.000  0.00  0.00    +0.000 C 
BRANCH  29  32
ATOM     32  C   UNL     1       3.793  -1.386   0.000  0.00  0.00    +0.000 C 
BRANCH  32  33
ATOM     33  O   UNL     1       3.079  -1.798   0.000  0.00  0.00    +0.000 OA
BRANCH  33  35
ATOM     34  O   UNL     1       2.364  -0.561   0.000  0.00  0.00    +0.000 OA
ATOM     35  C   UNL     1       2.364  -1.386   0.000  0.00  0.00    +0.000 C 
ATOM     36  C   UNL     1       1.650  -1.798   0.000  0.00  0.00    +0.000 C 
ENDBRANCH  33  35
ENDBRANCH  32  33
ENDBRANCH  29  32
ENDBRANCH  22  31
ENDBRANCH   5  22
TORSDOF 6
