REMARK  Name = 131833012
REMARK  17 active torsions:
REMARK  status: ('A' for Active; 'I' for Inactive)
REMARK    1  A    between atoms: SG_1  and  C_33
REMARK    2  A    between atoms: SG_1  and  CB_35
REMARK    3  A    between atoms: O_3  and  C_26
REMARK    4  A    between atoms: O_3  and  C_28
REMARK    5  A    between atoms: N_19  and  CA_36
REMARK    6  A    between atoms: N_20  and  CA_45
REMARK    7  A    between atoms: C_24  and  C_27
REMARK    8  A    between atoms: C_29  and  C_34
REMARK    9  A    between atoms: C_34  and  C_37
REMARK   10  A    between atoms: CB_35  and  CA_36
REMARK   11  A    between atoms: CA_36  and  C_39
REMARK   12  A    between atoms: C_38  and  C_40
REMARK   13  A    between atoms: C_38  and  C_41
REMARK   14  A    between atoms: C_40  and  CA_42
REMARK   15  A    between atoms: CA_42  and  C_46
REMARK   16  A    between atoms: C_43  and  C_44
REMARK   17  A    between atoms: CA_45  and  C_49
REMARK                            x       y       z     vdW  Elec       q    Type
REMARK                         _______ _______ _______ _____ _____    ______ ____
ROOT
ATOM      1  O   UNL     1       4.951  -2.397   0.000  0.00  0.00    +0.000 OA
ATOM      2  O   UNL     1       7.809  -0.747   0.000  0.00  0.00    +0.000 OA
ATOM      3  O   UNL     1       4.951  -0.747   0.000  0.00  0.00    +0.000 OA
ATOM      4  C   UNL     1       6.380  -2.397   0.000  0.00  0.00    +0.000 A 
ATOM      5  C   UNL     1       7.094  -1.984   0.000  0.00  0.00    +0.000 A 
ATOM      6  C   UNL     1       5.665  -1.984   0.000  0.00  0.00    +0.000 A 
ATOM      7  C   UNL     1       7.094  -1.159   0.000  0.00  0.00    +0.000 A 
ATOM      8  C   UNL     1       5.665  -1.159   0.000  0.00  0.00    +0.000 A 
ATOM      9  C   UNL     1       6.380  -0.747   0.000  0.00  0.00    +0.000 A 
ENDROOT
BRANCH   5  11
ATOM     10  O   UNL     1       7.809  -3.222   0.000  0.00  0.00    +0.000 OA
ATOM     11  C   UNL     1       7.809  -2.397   0.000  0.00  0.00    +0.000 C 
BRANCH  11  12
ATOM     12  C   UNL     1       8.523  -1.984   0.000  0.00  0.00    +0.000 C 
ATOM     13  C   UNL     1       9.238  -2.397   0.000  0.00  0.00    +0.000 C 
BRANCH  13  15
ATOM     14  O   UNL     1      12.096  -0.747   0.000  0.00  0.00    +0.000 OA
ATOM     15  C   UNL     1       9.952  -1.984   0.000  0.00  0.00    +0.000 A 
ATOM     16  C   UNL     1       9.952  -1.159   0.000  0.00  0.00    +0.000 A 
ATOM     17  C   UNL     1      10.667  -2.397   0.000  0.00  0.00    +0.000 A 
ATOM     18  C   UNL     1      10.667  -0.747   0.000  0.00  0.00    +0.000 A 
ATOM     19  C   UNL     1      11.381  -1.984   0.000  0.00  0.00    +0.000 A 
ATOM     20  C   UNL     1      11.381  -1.159   0.000  0.00  0.00    +0.000 A 
ENDBRANCH  13  15
ENDBRANCH  11  12
ENDBRANCH   5  11
BRANCH   9  21
ATOM     21  SG  UNL     1       6.380   0.078   0.000  0.00  0.00    +0.000 S 
BRANCH  21  22
ATOM     22  CB  UNL     1       5.665   0.491   0.000  0.00  0.00    +0.000 C 
BRANCH  22  23
ATOM     23  CA  UNL     1       5.665   1.316   0.000  0.00  0.00    +0.000 C 
BRANCH  23  25
ATOM     24  O   UNL     1       5.665   2.966   0.000  0.00  0.00    +0.000 OA
ATOM     25  N   UNL     1       6.380   1.728   0.000  0.00  0.00    +0.000 NA
ATOM     26  C   UNL     1       6.380   2.553   0.000  0.00  0.00    +0.000 C 
BRANCH  26  27
ATOM     27  C   UNL     1       7.094   2.966   0.000  0.00  0.00    +0.000 C 
BRANCH  27  28
ATOM     28  C   UNL     1       7.094   3.791   0.000  0.00  0.00    +0.000 C 
BRANCH  28  30
ATOM     29  N   UNL     1       8.523   3.791   0.000  0.00  0.00    +0.000 NA
ATOM     30  CA  UNL     1       7.809   4.203   0.000  0.00  0.00    +0.000 C 
BRANCH  30  33
ATOM     31  O   UNL     1       8.523   5.441   0.000  0.00  0.00    +0.000 OA
ATOM     32  OXT UNL     1       7.094   5.441   0.000  0.00  0.00    +0.000 OA
ATOM     33  C   UNL     1       7.809   5.028   0.000  0.00  0.00    +0.000 C 
ENDBRANCH  30  33
ENDBRANCH  28  30
ENDBRANCH  27  28
ENDBRANCH  26  27
ENDBRANCH  23  25
BRANCH  23  36
ATOM     34  O   UNL     1       4.951   2.553   0.000  0.00  0.00    +0.000 OA
ATOM     35  N   UNL     1       4.236   1.316   0.000  0.00  0.00    +0.000 NA
ATOM     36  C   ACE A   1       4.951   1.728   0.000  0.00  0.00    +0.000 C 
BRANCH  35  37
ATOM     37  CA  UNL     1       3.522   1.728   0.000  0.00  0.00    +0.000 C 
BRANCH  37  40
ATOM     38  O   UNL     1       2.093   1.728   0.000  0.00  0.00    +0.000 OA
ATOM     39  OXT UNL     1       2.808   0.491   0.000  0.00  0.00    +0.000 OA
ATOM     40  C   UNL     1       2.808   1.316   0.000  0.00  0.00    +0.000 C 
ENDBRANCH  37  40
ENDBRANCH  35  37
ENDBRANCH  23  36
ENDBRANCH  22  23
ENDBRANCH  21  22
ENDBRANCH   9  21
BRANCH   4  41
ATOM     41  O   UNL     1       6.380  -3.222   0.000  0.00  0.00    +0.000 OA
BRANCH  41  50
ATOM     42  O   UNL     1       4.951  -3.222   0.000  0.00  0.00    +0.000 OA
ATOM     43  O   UNL     1       4.951  -5.697   0.000  0.00  0.00    +0.000 OA
ATOM     44  O   UNL     1       3.522  -4.872   0.000  0.00  0.00    +0.000 OA
ATOM     45  O   UNL     1       6.380  -4.872   0.000  0.00  0.00    +0.000 OA
ATOM     46  C   UNL     1       4.236  -4.459   0.000  0.00  0.00    +0.000 C 
ATOM     47  C   UNL     1       4.951  -4.872   0.000  0.00  0.00    +0.000 C 
ATOM     48  C   UNL     1       4.236  -3.634   0.000  0.00  0.00    +0.000 C 
ATOM     49  C   UNL     1       5.665  -4.459   0.000  0.00  0.00    +0.000 C 
ATOM     50  C   UNL     1       5.665  -3.634   0.000  0.00  0.00    +0.000 C 
BRANCH  48  52
ATOM     51  O   UNL     1       2.808  -3.634   0.000  0.00  0.00    +0.000 OA
ATOM     52  C   UNL     1       3.522  -3.222   0.000  0.00  0.00    +0.000 C 
ENDBRANCH  48  52
ENDBRANCH  41  50
ENDBRANCH   4  41
TORSDOF 17
