REMARK  Name = 44259757
REMARK  8 active torsions:
REMARK  status: ('A' for Active; 'I' for Inactive)
REMARK    1  A    between atoms: O_3  and  C_17
REMARK    2  A    between atoms: O_3  and  C_32
REMARK    3  A    between atoms: O_4  and  C_23
REMARK    4  A    between atoms: O_4  and  C_29
REMARK    5  A    between atoms: O_7  and  C_26
REMARK    6  A    between atoms: O_7  and  C_30
REMARK    7  A    between atoms: O_12  and  C_36
REMARK    8  A    between atoms: C_37  and  C_39
REMARK                            x       y       z     vdW  Elec       q    Type
REMARK                         _______ _______ _______ _____ _____    ______ ____
ROOT
ATOM      1  O   UNL     1       6.671   0.305   0.000  0.00  0.00    +0.000 OA
ATOM      2  O   UNL     1       3.782   0.319   0.000  0.00  0.00    +0.000 OA
ATOM      3  O   UNL     1       4.532   1.551   0.000  0.00  0.00    +0.000 OA
ATOM      4  C   UNL     1       5.222  -1.396   0.000  0.00  0.00    +0.000 A 
ATOM      5  C   UNL     1       5.961   1.546   0.000  0.00  0.00    +0.000 A 
ATOM      6  C   UNL     1       5.242   0.311   0.000  0.00  0.00    +0.000 A 
ATOM      7  C   UNL     1       5.955  -0.104   0.000  0.00  0.00    +0.000 A 
ATOM      8  C   UNL     1       5.965  -0.964   0.000  0.00  0.00    +0.000 A 
ATOM      9  C   UNL     1       5.245   1.136   0.000  0.00  0.00    +0.000 A 
ATOM     10  C   UNL     1       4.480  -0.964   0.000  0.00  0.00    +0.000 A 
ATOM     11  C   UNL     1       6.674   1.130   0.000  0.00  0.00    +0.000 A 
ATOM     12  C   UNL     1       4.490  -0.104   0.000  0.00  0.00    +0.000 A 
ENDROOT
BRANCH  11  14
ATOM     13  O   UNL     1       9.538   2.769   0.000  0.00  0.00    +0.000 OA
ATOM     14  C   UNL     1       7.390   1.540   0.000  0.00  0.00    +0.000 A 
ATOM     15  C   UNL     1       7.393   2.365   0.000  0.00  0.00    +0.000 A 
ATOM     16  C   UNL     1       8.103   1.125   0.000  0.00  0.00    +0.000 A 
ATOM     17  C   UNL     1       8.109   2.775   0.000  0.00  0.00    +0.000 A 
ATOM     18  C   UNL     1       8.819   1.535   0.000  0.00  0.00    +0.000 A 
ATOM     19  C   UNL     1       8.822   2.360   0.000  0.00  0.00    +0.000 A 
ENDBRANCH  11  14
BRANCH  10  20
ATOM     20  O   UNL     1       3.762  -1.371   0.000  0.00  0.00    +0.000 OA
ATOM     21  C   UNL     1       3.051  -0.953   0.000  0.00  0.00    +0.000 C 
ENDBRANCH  10  20
BRANCH   4  22
ATOM     22  O   UNL     1       5.222  -2.221   0.000  0.00  0.00    +0.000 OA
BRANCH  22  30
ATOM     23  O   UNL     1       3.793  -2.221   0.000  0.00  0.00    +0.000 OA
ATOM     24  O   UNL     1       3.793  -4.696   0.000  0.00  0.00    +0.000 OA
ATOM     25  O   UNL     1       5.222  -3.871   0.000  0.00  0.00    +0.000 OA
ATOM     26  C   UNL     1       3.079  -3.459   0.000  0.00  0.00    +0.000 C 
ATOM     27  C   UNL     1       3.793  -3.871   0.000  0.00  0.00    +0.000 C 
ATOM     28  C   UNL     1       4.508  -3.459   0.000  0.00  0.00    +0.000 C 
ATOM     29  C   UNL     1       3.079  -2.634   0.000  0.00  0.00    +0.000 C 
ATOM     30  C   UNL     1       4.508  -2.634   0.000  0.00  0.00    +0.000 C 
ATOM     31  C   UNL     1       2.364  -2.221   0.000  0.00  0.00    +0.000 C 
BRANCH  26  32
ATOM     32  O   UNL     1       2.364  -3.871   0.000  0.00  0.00    +0.000 OA
BRANCH  32  34
ATOM     33  O   UNL     1       3.079  -5.109   0.000  0.00  0.00    +0.000 OA
ATOM     34  C   UNL     1       2.364  -4.696   0.000  0.00  0.00    +0.000 C 
ATOM     35  C   UNL     1       1.650  -5.109   0.000  0.00  0.00    +0.000 C 
ENDBRANCH  32  34
ENDBRANCH  26  32
ENDBRANCH  22  30
ENDBRANCH   4  22
BRANCH   5  36
ATOM     36  O   UNL     1       5.965   2.371   0.000  0.00  0.00    +0.000 OA
BRANCH  36  45
ATOM     37  O   UNL     1       4.536   2.376   0.000  0.00  0.00    +0.000 OA
ATOM     38  O   UNL     1       4.545   4.851   0.000  0.00  0.00    +0.000 OA
ATOM     39  O   UNL     1       3.113   4.032   0.000  0.00  0.00    +0.000 OA
ATOM     40  O   UNL     1       5.971   4.021   0.000  0.00  0.00    +0.000 OA
ATOM     41  C   UNL     1       4.542   4.026   0.000  0.00  0.00    +0.000 C 
ATOM     42  C   UNL     1       3.826   3.616   0.000  0.00  0.00    +0.000 C 
ATOM     43  C   UNL     1       5.255   3.611   0.000  0.00  0.00    +0.000 C 
ATOM     44  C   UNL     1       3.823   2.791   0.000  0.00  0.00    +0.000 C 
ATOM     45  C   UNL     1       5.252   2.786   0.000  0.00  0.00    +0.000 C 
ATOM     46  C   UNL     1       3.107   2.382   0.000  0.00  0.00    +0.000 C 
ENDBRANCH  36  45
ENDBRANCH   5  36
TORSDOF 8
