REMARK  Name = 44257377
REMARK  3 active torsions:
REMARK  status: ('A' for Active; 'I' for Inactive)
REMARK    1  A    between atoms: O_4  and  C_13
REMARK    2  A    between atoms: O_5  and  C_21
REMARK    3  A    between atoms: C_6  and  C_9
REMARK                            x       y       z     vdW  Elec       q    Type
REMARK                         _______ _______ _______ _____ _____    ______ ____
ROOT
ATOM      1  O   UNL     1       5.965  -1.879   0.000  0.00  0.00    +0.000 OA
ATOM      2  O   UNL     1       5.974   0.653   0.000  0.00  0.00    +0.000 OA
ATOM      3  O   UNL     1       8.912  -1.689   0.000  0.00  0.00    +0.000 OA
ATOM      4  C   UNL     1       5.218  -0.596   0.000  0.00  0.00    +0.000 C 
ATOM      5  C   UNL     1       5.218  -1.455   0.000  0.00  0.00    +0.000 C 
ATOM      6  C   UNL     1       5.965  -0.172   0.000  0.00  0.00    +0.000 C 
ATOM      7  C   UNL     1       6.702  -0.613   0.000  0.00  0.00    +0.000 A 
ATOM      8  C   UNL     1       6.702  -1.438   0.000  0.00  0.00    +0.000 A 
ATOM      9  C   UNL     1       7.417  -0.201   0.000  0.00  0.00    +0.000 A 
ATOM     10  C   UNL     1       8.132  -0.613   0.000  0.00  0.00    +0.000 A 
ATOM     11  C   UNL     1       7.417  -1.851   0.000  0.00  0.00    +0.000 A 
ATOM     12  C   UNL     1       8.132  -1.438   0.000  0.00  0.00    +0.000 A 
ATOM     13  C   UNL     1       8.912  -0.362   0.000  0.00  0.00    +0.000 A 
ATOM     14  C   UNL     1       9.393  -1.026   0.000  0.00  0.00    +0.000 A 
ENDROOT
BRANCH   4  15
ATOM     15  C   UNL     1       4.505  -0.181   0.000  0.00  0.00    +0.000 A 
ATOM     16  C   UNL     1       4.508   0.644   0.000  0.00  0.00    +0.000 A 
ATOM     17  C   UNL     1       3.789  -0.590   0.000  0.00  0.00    +0.000 A 
ATOM     18  C   UNL     1       3.795   1.060   0.000  0.00  0.00    +0.000 A 
ATOM     19  C   UNL     1       3.076  -0.175   0.000  0.00  0.00    +0.000 A 
ATOM     20  C   UNL     1       3.079   0.650   0.000  0.00  0.00    +0.000 A 
BRANCH  16  21
ATOM     21  O   UNL     1       5.224   1.054   0.000  0.00  0.00    +0.000 OA
ATOM     22  C   UNL     1       5.227   1.879   0.000  0.00  0.00    +0.000 C 
ENDBRANCH  16  21
BRANCH  20  23
ATOM     23  O   UNL     1       2.366   1.065   0.000  0.00  0.00    +0.000 OA
ATOM     24  C   UNL     1       1.650   0.655   0.000  0.00  0.00    +0.000 C 
ENDBRANCH  20  23
ENDBRANCH   4  15
TORSDOF 3
