REMARK  Name = 5378171
REMARK  2 active torsions:
REMARK  status: ('A' for Active; 'I' for Inactive)
REMARK    1  A    between atoms: O_4  and  C_20
REMARK    2  A    between atoms: C_7  and  C_11
REMARK                            x       y       z     vdW  Elec       q    Type
REMARK                         _______ _______ _______ _____ _____    ______ ____
ROOT
ATOM      1  O   UNL     1       4.562  -0.763   0.000  0.00  0.00    +0.000 OA
ATOM      2  O   UNL     1       3.120   1.740   0.000  0.00  0.00    +0.000 OA
ATOM      3  O   UNL     1       4.562   1.712   0.000  0.00  0.00    +0.000 OA
ATOM      4  C   UNL     1       3.848   0.474   0.000  0.00  0.00    +0.000 A 
ATOM      5  C   UNL     1       3.848  -0.351   0.000  0.00  0.00    +0.000 A 
ATOM      6  C   UNL     1       5.277  -0.351   0.000  0.00  0.00    +0.000 A 
ATOM      7  C   UNL     1       2.363  -0.368   0.000  0.00  0.00    +0.000 A 
ATOM      8  C   UNL     1       3.110  -0.792   0.000  0.00  0.00    +0.000 A 
ATOM      9  C   UNL     1       3.110   0.915   0.000  0.00  0.00    +0.000 A 
ATOM     10  C   UNL     1       4.562   0.886   0.000  0.00  0.00    +0.000 A 
ATOM     11  C   UNL     1       5.277   0.474   0.000  0.00  0.00    +0.000 A 
ATOM     12  C   UNL     1       2.363   0.491   0.000  0.00  0.00    +0.000 A 
ATOM     13  C   UNL     1       1.650  -0.783   0.000  0.00  0.00    +0.000 C 
ENDROOT
BRANCH   6  14
ATOM     14  C   UNL     1       5.991  -0.763   0.000  0.00  0.00    +0.000 A 
ATOM     15  C   UNL     1       6.706  -0.351   0.000  0.00  0.00    +0.000 A 
ATOM     16  C   UNL     1       5.991  -1.589   0.000  0.00  0.00    +0.000 A 
ATOM     17  C   UNL     1       7.420  -0.763   0.000  0.00  0.00    +0.000 A 
ATOM     18  C   UNL     1       6.706  -2.001   0.000  0.00  0.00    +0.000 A 
ATOM     19  C   UNL     1       7.420  -1.589   0.000  0.00  0.00    +0.000 A 
BRANCH  19  20
ATOM     20  O   UNL     1       8.135  -2.001   0.000  0.00  0.00    +0.000 OA
ATOM     21  C   UNL     1       8.849  -1.589   0.000  0.00  0.00    +0.000 C 
ENDBRANCH  19  20
ENDBRANCH   6  14
TORSDOF 2
