REMARK  Name = 42607603
REMARK  5 active torsions:
REMARK  status: ('A' for Active; 'I' for Inactive)
REMARK    1  A    between atoms: O_2  and  C_13
REMARK    2  A    between atoms: O_2  and  C_15
REMARK    3  A    between atoms: C_16  and  C_20
REMARK    4  A    between atoms: C_20  and  C_22
REMARK    5  A    between atoms: C_23  and  C_24
REMARK                            x       y       z     vdW  Elec       q    Type
REMARK                         _______ _______ _______ _____ _____    ______ ____
ROOT
ATOM      1  O   UNL     1       7.809  -0.747   0.000  0.00  0.00    +0.000 OA
ATOM      2  O   UNL     1       6.380  -3.222   0.000  0.00  0.00    +0.000 OA
ATOM      3  C   UNL     1       5.665  -1.159   0.000  0.00  0.00    +0.000 A 
ATOM      4  C   UNL     1       6.380  -0.747   0.000  0.00  0.00    +0.000 A 
ATOM      5  C   UNL     1       5.665  -1.984   0.000  0.00  0.00    +0.000 A 
ATOM      6  C   UNL     1       7.094  -1.159   0.000  0.00  0.00    +0.000 A 
ATOM      7  C   UNL     1       6.380  -2.397   0.000  0.00  0.00    +0.000 A 
ATOM      8  C   UNL     1       7.094  -1.984   0.000  0.00  0.00    +0.000 A 
ENDROOT
BRANCH   4  10
ATOM      9  O   UNL     1       5.665   0.491   0.000  0.00  0.00    +0.000 OA
ATOM     10  C   UNL     1       6.380   0.078   0.000  0.00  0.00    +0.000 C 
BRANCH  10  11
ATOM     11  C   UNL     1       7.094   0.491   0.000  0.00  0.00    +0.000 C 
ATOM     12  C   UNL     1       7.094   1.316   0.000  0.00  0.00    +0.000 C 
BRANCH  12  14
ATOM     13  O   UNL     1       9.952   2.966   0.000  0.00  0.00    +0.000 OA
ATOM     14  C   UNL     1       7.809   1.728   0.000  0.00  0.00    +0.000 A 
ATOM     15  C   UNL     1       7.809   2.553   0.000  0.00  0.00    +0.000 A 
ATOM     16  C   UNL     1       8.523   1.316   0.000  0.00  0.00    +0.000 A 
ATOM     17  C   UNL     1       8.523   2.966   0.000  0.00  0.00    +0.000 A 
ATOM     18  C   UNL     1       9.238   1.728   0.000  0.00  0.00    +0.000 A 
ATOM     19  C   UNL     1       9.238   2.553   0.000  0.00  0.00    +0.000 A 
ENDBRANCH  12  14
ENDBRANCH  10  11
ENDBRANCH   4  10
BRANCH   3  20
ATOM     20  O   UNL     1       4.951  -0.747   0.000  0.00  0.00    +0.000 OA
BRANCH  20  28
ATOM     21  O   UNL     1       3.522  -0.747   0.000  0.00  0.00    +0.000 OA
ATOM     22  O   UNL     1       3.522  -3.222   0.000  0.00  0.00    +0.000 OA
ATOM     23  O   UNL     1       4.951  -2.397   0.000  0.00  0.00    +0.000 OA
ATOM     24  O   UNL     1       2.093  -2.397   0.000  0.00  0.00    +0.000 OA
ATOM     25  C   UNL     1       3.522  -2.397   0.000  0.00  0.00    +0.000 C 
ATOM     26  C   UNL     1       4.237  -1.984   0.000  0.00  0.00    +0.000 C 
ATOM     27  C   UNL     1       2.808  -1.984   0.000  0.00  0.00    +0.000 C 
ATOM     28  C   UNL     1       4.237  -1.159   0.000  0.00  0.00    +0.000 C 
ATOM     29  C   UNL     1       2.808  -1.159   0.000  0.00  0.00    +0.000 C 
ENDBRANCH  20  28
ENDBRANCH   3  20
TORSDOF 5
