REMARK  Name = 44259946
REMARK  5 active torsions:
REMARK  status: ('A' for Active; 'I' for Inactive)
REMARK    1  A    between atoms: O_3  and  C_21
REMARK    2  A    between atoms: O_3  and  C_26
REMARK    3  A    between atoms: O_6  and  C_23
REMARK    4  A    between atoms: O_6  and  C_28
REMARK    5  A    between atoms: C_31  and  C_32
REMARK                            x       y       z     vdW  Elec       q    Type
REMARK                         _______ _______ _______ _____ _____    ______ ____
ROOT
ATOM      1  O   UNL     1       6.377   0.421   0.000  0.00  0.00    +0.000 OA
ATOM      2  O   UNL     1       3.465   0.401   0.000  0.00  0.00    +0.000 OA
ATOM      3  O   UNL     1       4.934   2.924   0.000  0.00  0.00    +0.000 OA
ATOM      4  O   UNL     1       7.806   2.071   0.000  0.00  0.00    +0.000 OA
ATOM      5  O   UNL     1       6.377   2.896   0.000  0.00  0.00    +0.000 OA
ATOM      6  C   UNL     1       4.925   0.392   0.000  0.00  0.00    +0.000 A 
ATOM      7  C   UNL     1       5.662   0.833   0.000  0.00  0.00    +0.000 A 
ATOM      8  C   UNL     1       5.662   1.658   0.000  0.00  0.00    +0.000 A 
ATOM      9  C   UNL     1       4.178   0.816   0.000  0.00  0.00    +0.000 A 
ATOM     10  C   UNL     1       7.091   0.833   0.000  0.00  0.00    +0.000 A 
ATOM     11  C   UNL     1       4.925   2.099   0.000  0.00  0.00    +0.000 A 
ATOM     12  C   UNL     1       4.178   1.675   0.000  0.00  0.00    +0.000 A 
ATOM     13  C   UNL     1       6.377   2.071   0.000  0.00  0.00    +0.000 A 
ATOM     14  C   UNL     1       7.091   1.658   0.000  0.00  0.00    +0.000 A 
ENDROOT
BRANCH  10  16
ATOM     15  C   UNL     1       9.235  -0.404   0.000  0.00  0.00    +0.000 A 
ATOM     16  C   UNL     1       7.806   0.421   0.000  0.00  0.00    +0.000 A 
ATOM     17  C   UNL     1       9.235   0.421   0.000  0.00  0.00    +0.000 A 
ATOM     18  C   UNL     1       8.520  -0.817   0.000  0.00  0.00    +0.000 A 
ATOM     19  C   UNL     1       8.520   0.833   0.000  0.00  0.00    +0.000 A 
ATOM     20  C   UNL     1       7.806  -0.404   0.000  0.00  0.00    +0.000 A 
BRANCH  15  21
ATOM     21  O   UNL     1       9.949  -0.817   0.000  0.00  0.00    +0.000 OA
BRANCH  21  29
ATOM     22  O   UNL     1      10.664   0.421   0.000  0.00  0.00    +0.000 OA
ATOM     23  O   UNL     1      12.807  -0.817   0.000  0.00  0.00    +0.000 OA
ATOM     24  O   UNL     1      11.378  -1.642   0.000  0.00  0.00    +0.000 OA
ATOM     25  O   UNL     1      12.807   0.833   0.000  0.00  0.00    +0.000 OA
ATOM     26  C   UNL     1      12.093  -0.404   0.000  0.00  0.00    +0.000 C 
ATOM     27  C   UNL     1      11.378  -0.817   0.000  0.00  0.00    +0.000 C 
ATOM     28  C   UNL     1      12.093   0.421   0.000  0.00  0.00    +0.000 C 
ATOM     29  C   UNL     1      10.664  -0.404   0.000  0.00  0.00    +0.000 C 
ATOM     30  C   UNL     1      11.378   0.833   0.000  0.00  0.00    +0.000 C 
ENDBRANCH  21  29
ENDBRANCH  15  21
ENDBRANCH  10  16
BRANCH   6  31
ATOM     31  O   UNL     1       4.934  -0.433   0.000  0.00  0.00    +0.000 OA
BRANCH  31  39
ATOM     32  O   UNL     1       3.506  -0.449   0.000  0.00  0.00    +0.000 OA
ATOM     33  O   UNL     1       3.534  -2.924   0.000  0.00  0.00    +0.000 OA
ATOM     34  O   UNL     1       4.954  -2.083   0.000  0.00  0.00    +0.000 OA
ATOM     35  O   UNL     1       2.096  -2.116   0.000  0.00  0.00    +0.000 OA
ATOM     36  C   UNL     1       3.525  -2.099   0.000  0.00  0.00    +0.000 C 
ATOM     37  C   UNL     1       4.234  -1.679   0.000  0.00  0.00    +0.000 C 
ATOM     38  C   UNL     1       2.806  -1.695   0.000  0.00  0.00    +0.000 C 
ATOM     39  C   UNL     1       4.225  -0.854   0.000  0.00  0.00    +0.000 C 
ATOM     40  C   UNL     1       2.796  -0.870   0.000  0.00  0.00    +0.000 C 
ENDBRANCH  31  39
ENDBRANCH   6  31
TORSDOF 5
