REMARK  Name = 131752325
REMARK  12 active torsions:
REMARK  status: ('A' for Active; 'I' for Inactive)
REMARK    1  A    between atoms: O_1  and  C_21
REMARK    2  A    between atoms: O_1  and  C_23
REMARK    3  A    between atoms: O_4  and  C_24
REMARK    4  A    between atoms: O_4  and  C_34
REMARK    5  A    between atoms: O_6  and  C_27
REMARK    6  A    between atoms: O_6  and  C_33
REMARK    7  A    between atoms: O_17  and  C_50
REMARK    8  A    between atoms: C_29  and  C_31
REMARK    9  A    between atoms: C_30  and  C_32
REMARK   10  A    between atoms: C_34  and  C_37
REMARK   11  A    between atoms: C_40  and  C_42
REMARK   12  A    between atoms: C_41  and  C_43
REMARK                            x       y       z     vdW  Elec       q    Type
REMARK                         _______ _______ _______ _____ _____    ______ ____
ROOT
ATOM      1  O   UNL     1       4.236  -0.765   0.000  0.00  0.00    +0.000 OA
ATOM      2  O   UNL     1       4.236  -3.240   0.000  0.00  0.00    +0.000 OA
ATOM      3  O   UNL     1       2.808  -2.415   0.000  0.00  0.00    +0.000 OA
ATOM      4  C   UNL     1       4.951  -2.003   0.000  0.00  0.00    +0.000 C 
ATOM      5  C   UNL     1       4.236  -2.415   0.000  0.00  0.00    +0.000 C 
ATOM      6  C   UNL     1       3.522  -2.003   0.000  0.00  0.00    +0.000 C 
ATOM      7  C   UNL     1       4.951  -1.178   0.000  0.00  0.00    +0.000 C 
ATOM      8  C   UNL     1       3.522  -1.178   0.000  0.00  0.00    +0.000 C 
ENDROOT
BRANCH   8  11
ATOM      9  O   UNL     1       2.093  -1.178   0.000  0.00  0.00    +0.000 OA
ATOM     10  O   UNL     1       2.808   0.060   0.000  0.00  0.00    +0.000 OA
ATOM     11  C   UNL     1       2.808  -0.765   0.000  0.00  0.00    +0.000 C 
ENDBRANCH   8  11
BRANCH   4  12
ATOM     12  O   UNL     1       5.665  -2.415   0.000  0.00  0.00    +0.000 OA
BRANCH  12  16
ATOM     13  O   UNL     1       4.951  -3.653   0.000  0.00  0.00    +0.000 OA
ATOM     14  O   UNL     1       7.094  -4.890   0.000  0.00  0.00    +0.000 OA
ATOM     15  O   UNL     1       5.665  -5.715   0.000  0.00  0.00    +0.000 OA
ATOM     16  C   UNL     1       5.665  -3.240   0.000  0.00  0.00    +0.000 C 
ATOM     17  C   UNL     1       6.380  -3.653   0.000  0.00  0.00    +0.000 C 
ATOM     18  C   UNL     1       6.380  -4.478   0.000  0.00  0.00    +0.000 C 
ATOM     19  C   UNL     1       5.665  -4.890   0.000  0.00  0.00    +0.000 C 
ATOM     20  C   UNL     1       4.951  -4.478   0.000  0.00  0.00    +0.000 C 
BRANCH  20  23
ATOM     21  O   UNL     1       4.236  -5.715   0.000  0.00  0.00    +0.000 OA
ATOM     22  O   UNL     1       3.522  -4.478   0.000  0.00  0.00    +0.000 OA
ATOM     23  C   UNL     1       4.236  -4.890   0.000  0.00  0.00    +0.000 C 
ENDBRANCH  20  23
BRANCH  17  24
ATOM     24  O   UNL     1       7.094  -3.240   0.000  0.00  0.00    +0.000 OA
BRANCH  24  26
ATOM     25  O   UNL     1       7.809  -4.478   0.000  0.00  0.00    +0.000 OA
ATOM     26  C   UNL     1       7.809  -3.653   0.000  0.00  0.00    +0.000 C 
BRANCH  26  27
ATOM     27  C   UNL     1       8.523  -3.240   0.000  0.00  0.00    +0.000 C 
ATOM     28  C   UNL     1       9.238  -3.653   0.000  0.00  0.00    +0.000 C 
BRANCH  28  30
ATOM     29  O   UNL     1      12.096  -2.003   0.000  0.00  0.00    +0.000 OA
ATOM     30  C   UNL     1       9.952  -3.240   0.000  0.00  0.00    +0.000 A 
ATOM     31  C   UNL     1       9.952  -2.415   0.000  0.00  0.00    +0.000 A 
ATOM     32  C   UNL     1      10.667  -3.653   0.000  0.00  0.00    +0.000 A 
ATOM     33  C   UNL     1      10.667  -2.003   0.000  0.00  0.00    +0.000 A 
ATOM     34  C   UNL     1      11.381  -3.240   0.000  0.00  0.00    +0.000 A 
ATOM     35  C   UNL     1      11.381  -2.415   0.000  0.00  0.00    +0.000 A 
BRANCH  33  36
ATOM     36  O   UNL     1      10.667  -1.178   0.000  0.00  0.00    +0.000 OA
ATOM     37  C   UNL     1      11.381  -0.765   0.000  0.00  0.00    +0.000 C 
ENDBRANCH  33  36
ENDBRANCH  28  30
ENDBRANCH  26  27
ENDBRANCH  24  26
ENDBRANCH  17  24
ENDBRANCH  12  16
ENDBRANCH   4  12
BRANCH   7  38
ATOM     38  O   UNL     1       5.665  -0.765   0.000  0.00  0.00    +0.000 OA
BRANCH  38  39
ATOM     39  C   UNL     1       5.665   0.060   0.000  0.00  0.00    +0.000 A 
ATOM     40  C   UNL     1       6.380   0.472   0.000  0.00  0.00    +0.000 A 
ATOM     41  C   UNL     1       4.951   0.472   0.000  0.00  0.00    +0.000 A 
ATOM     42  C   UNL     1       6.380   1.297   0.000  0.00  0.00    +0.000 A 
ATOM     43  C   UNL     1       4.951   1.297   0.000  0.00  0.00    +0.000 A 
ATOM     44  C   UNL     1       5.665   1.710   0.000  0.00  0.00    +0.000 A 
BRANCH  44  49
ATOM     45  O   UNL     1       6.380   2.947   0.000  0.00  0.00    +0.000 OA
ATOM     46  O   UNL     1       4.236   4.185   0.000  0.00  0.00    +0.000 OA
ATOM     47  O   UNL     1       4.933   5.448   0.000  0.00  0.00    +0.000 OA
ATOM     48  O   UNL     1       7.853   5.460   0.000  0.00  0.00    +0.000 OA
ATOM     49  C   UNL     1       5.665   2.535   0.000  0.00  0.00    +0.000 A 
ATOM     50  C   UNL     1       4.951   2.947   0.000  0.00  0.00    +0.000 A 
ATOM     51  C   UNL     1       6.380   3.772   0.000  0.00  0.00    +0.000 A 
ATOM     52  C   UNL     1       4.951   3.772   0.000  0.00  0.00    +0.000 A 
ATOM     53  C   UNL     1       5.665   4.185   0.000  0.00  0.00    +0.000 A 
ATOM     54  C   UNL     1       7.131   4.190   0.000  0.00  0.00    +0.000 A 
ATOM     55  C   UNL     1       5.652   5.044   0.000  0.00  0.00    +0.000 A 
ATOM     56  C   UNL     1       7.137   5.050   0.000  0.00  0.00    +0.000 A 
ATOM     57  C   UNL     1       6.393   5.479   0.000  0.00  0.00    +0.000 A 
ENDBRANCH  44  49
ENDBRANCH  38  39
ENDBRANCH   7  38
TORSDOF 12
