REMARK  Name = 44258444
REMARK  6 active torsions:
REMARK  status: ('A' for Active; 'I' for Inactive)
REMARK    1  A    between atoms: O_2  and  C_16
REMARK    2  A    between atoms: O_2  and  C_18
REMARK    3  A    between atoms: O_8  and  C_20
REMARK    4  A    between atoms: O_11  and  C_33
REMARK    5  A    between atoms: C_15  and  C_17
REMARK    6  A    between atoms: C_25  and  C_27
REMARK                            x       y       z     vdW  Elec       q    Type
REMARK                         _______ _______ _______ _____ _____    ______ ____
ROOT
ATOM      1  O   UNL     1       5.652   0.957   0.000  0.00  0.00    +0.000 OA
ATOM      2  O   UNL     1       7.094  -1.552   0.000  0.00  0.00    +0.000 OA
ATOM      3  O   UNL     1       7.840  -0.317   0.000  0.00  0.00    +0.000 OA
ATOM      4  C   UNL     1       5.665  -1.552   0.000  0.00  0.00    +0.000 A 
ATOM      5  C   UNL     1       6.380  -1.140   0.000  0.00  0.00    +0.000 A 
ATOM      6  C   UNL     1       4.951  -1.140   0.000  0.00  0.00    +0.000 A 
ATOM      7  C   UNL     1       6.380  -0.315   0.000  0.00  0.00    +0.000 A 
ATOM      8  C   UNL     1       5.665   0.098   0.000  0.00  0.00    +0.000 A 
ATOM      9  C   UNL     1       4.951  -0.315   0.000  0.00  0.00    +0.000 A 
ATOM     10  C   UNL     1       7.131   0.104   0.000  0.00  0.00    +0.000 A 
ATOM     11  C   UNL     1       6.393   1.393   0.000  0.00  0.00    +0.000 A 
ATOM     12  C   UNL     1       7.137   0.963   0.000  0.00  0.00    +0.000 A 
ENDROOT
BRANCH  11  13
ATOM     13  C   UNL     1       6.390   2.218   0.000  0.00  0.00    +0.000 A 
ATOM     14  C   UNL     1       5.674   2.627   0.000  0.00  0.00    +0.000 A 
ATOM     15  C   UNL     1       7.103   2.633   0.000  0.00  0.00    +0.000 A 
ATOM     16  C   UNL     1       5.671   3.452   0.000  0.00  0.00    +0.000 A 
ATOM     17  C   UNL     1       7.099   3.458   0.000  0.00  0.00    +0.000 A 
ATOM     18  C   UNL     1       6.383   3.868   0.000  0.00  0.00    +0.000 A 
BRANCH  18  19
ATOM     19  O   UNL     1       6.380   4.693   0.000  0.00  0.00    +0.000 OA
ATOM     20  C   UNL     1       7.093   5.108   0.000  0.00  0.00    +0.000 C 
ENDBRANCH  18  19
ENDBRANCH  11  13
BRANCH   6  21
ATOM     21  O   UNL     1       4.236  -1.552   0.000  0.00  0.00    +0.000 OA
ATOM     22  C   UNL     1       3.522  -1.140   0.000  0.00  0.00    +0.000 C 
ENDBRANCH   6  21
BRANCH   4  23
ATOM     23  O   UNL     1       5.665  -2.377   0.000  0.00  0.00    +0.000 OA
BRANCH  23  32
ATOM     24  O   UNL     1       4.236  -2.377   0.000  0.00  0.00    +0.000 OA
ATOM     25  O   UNL     1       4.236  -4.852   0.000  0.00  0.00    +0.000 OA
ATOM     26  O   UNL     1       2.808  -4.027   0.000  0.00  0.00    +0.000 OA
ATOM     27  O   UNL     1       5.665  -4.027   0.000  0.00  0.00    +0.000 OA
ATOM     28  C   UNL     1       4.236  -4.027   0.000  0.00  0.00    +0.000 C 
ATOM     29  C   UNL     1       3.522  -3.615   0.000  0.00  0.00    +0.000 C 
ATOM     30  C   UNL     1       4.951  -3.615   0.000  0.00  0.00    +0.000 C 
ATOM     31  C   UNL     1       3.522  -2.790   0.000  0.00  0.00    +0.000 C 
ATOM     32  C   UNL     1       4.951  -2.790   0.000  0.00  0.00    +0.000 C 
BRANCH  31  34
ATOM     33  O   UNL     1       2.093  -2.790   0.000  0.00  0.00    +0.000 OA
ATOM     34  C   UNL     1       2.808  -2.377   0.000  0.00  0.00    +0.000 C 
ENDBRANCH  31  34
ENDBRANCH  23  32
ENDBRANCH   4  23
TORSDOF 6
