REMARK  Name = 131838618
REMARK  12 active torsions:
REMARK  status: ('A' for Active; 'I' for Inactive)
REMARK    1  A    between atoms: S_1  and  O_5
REMARK    2  A    between atoms: O_2  and  C_22
REMARK    3  A    between atoms: O_2  and  C_23
REMARK    4  A    between atoms: O_5  and  C_21
REMARK    5  A    between atoms: O_8  and  C_27
REMARK    6  A    between atoms: O_8  and  C_31
REMARK    7  A    between atoms: O_10  and  C_29
REMARK    8  A    between atoms: O_10  and  C_32
REMARK    9  A    between atoms: C_20  and  C_29
REMARK   10  A    between atoms: C_28  and  C_30
REMARK   11  A    between atoms: C_32  and  C_35
REMARK   12  A    between atoms: C_36  and  C_37
REMARK                            x       y       z     vdW  Elec       q    Type
REMARK                         _______ _______ _______ _____ _____    ______ ____
ROOT
ATOM      1  O   UNL     1       4.236  -1.352   0.000  0.00  0.00    +0.000 OA
ATOM      2  O   UNL     1       4.236  -3.827   0.000  0.00  0.00    +0.000 OA
ATOM      3  O   UNL     1       2.808  -3.002   0.000  0.00  0.00    +0.000 OA
ATOM      4  C   UNL     1       4.951  -2.590   0.000  0.00  0.00    +0.000 C 
ATOM      5  C   UNL     1       4.236  -3.002   0.000  0.00  0.00    +0.000 C 
ATOM      6  C   UNL     1       3.522  -2.590   0.000  0.00  0.00    +0.000 C 
ATOM      7  C   UNL     1       4.951  -1.765   0.000  0.00  0.00    +0.000 C 
ATOM      8  C   UNL     1       3.522  -1.765   0.000  0.00  0.00    +0.000 C 
ENDROOT
BRANCH   8  10
ATOM      9  O   UNL     1       2.093  -1.765   0.000  0.00  0.00    +0.000 OA
ATOM     10  C   UNL     1       2.808  -1.352   0.000  0.00  0.00    +0.000 C 
ENDBRANCH   8  10
BRANCH   4  11
ATOM     11  O   UNL     1       5.665  -3.002   0.000  0.00  0.00    +0.000 OA
BRANCH  11  16
ATOM     12  O   UNL     1       6.466  -1.769   0.000  0.00  0.00    +0.000 OA
ATOM     13  O   UNL     1       8.400  -1.900   0.000  0.00  0.00    +0.000 OA
ATOM     14  C   UNL     1       7.686  -2.312   0.000  0.00  0.00    +0.000 C 
ATOM     15  C   UNL     1       7.133  -2.925   0.000  0.00  0.00    +0.000 C 
ATOM     16  C   UNL     1       6.380  -2.590   0.000  0.00  0.00    +0.000 C 
ATOM     17  C   UNL     1       7.273  -1.598   0.000  0.00  0.00    +0.000 C 
BRANCH  15  18
ATOM     18  O   UNL     1       7.305  -3.732   0.000  0.00  0.00    +0.000 OA
BRANCH  18  19
ATOM     19  S   UNL     1       6.692  -4.284   0.000  0.00  0.00    +0.000 S 
ATOM     20  O   UNL     1       7.244  -4.897   0.000  0.00  0.00    +0.000 OA
ATOM     21  O   UNL     1       6.079  -4.836   0.000  0.00  0.00    +0.000 OA
ATOM     22  O   UNL     1       6.140  -3.671   0.000  0.00  0.00    +0.000 OA
ENDBRANCH  18  19
ENDBRANCH  15  18
BRANCH  14  23
ATOM     23  C   UNL     1       8.299  -2.864   0.000  0.00  0.00    +0.000 C 
BRANCH  23  24
ATOM     24  O   UNL     1       9.083  -2.609   0.000  0.00  0.00    +0.000 OA
BRANCH  24  26
ATOM     25  O   UNL     1       9.525  -3.968   0.000  0.00  0.00    +0.000 OA
ATOM     26  C   UNL     1       9.696  -3.161   0.000  0.00  0.00    +0.000 C 
BRANCH  26  28
ATOM     27  N   UNL     1      11.554  -2.124   0.000  0.00  0.00    +0.000 NA
ATOM     28  C   UNL     1      10.481  -2.906   0.000  0.00  0.00    +0.000 A 
ATOM     29  C   UNL     1      11.144  -3.389   0.000  0.00  0.00    +0.000 A 
ATOM     30  C   UNL     1      10.734  -2.126   0.000  0.00  0.00    +0.000 A 
ATOM     31  C   UNL     1      11.811  -2.903   0.000  0.00  0.00    +0.000 A 
ATOM     32  C   UNL     1      11.232  -4.209   0.000  0.00  0.00    +0.000 A 
ATOM     33  C   UNL     1      12.565  -3.237   0.000  0.00  0.00    +0.000 A 
ATOM     34  C   UNL     1      11.986  -4.544   0.000  0.00  0.00    +0.000 A 
ATOM     35  C   UNL     1      12.652  -4.058   0.000  0.00  0.00    +0.000 A 
ENDBRANCH  26  28
ENDBRANCH  24  26
ENDBRANCH  23  24
ENDBRANCH  14  23
ENDBRANCH  11  16
ENDBRANCH   4  11
BRANCH   7  36
ATOM     36  O   UNL     1       5.665  -1.352   0.000  0.00  0.00    +0.000 OA
BRANCH  36  37
ATOM     37  C   UNL     1       5.665  -0.527   0.000  0.00  0.00    +0.000 A 
ATOM     38  C   UNL     1       6.380  -0.115   0.000  0.00  0.00    +0.000 A 
ATOM     39  C   UNL     1       4.951  -0.115   0.000  0.00  0.00    +0.000 A 
ATOM     40  C   UNL     1       5.665   1.123   0.000  0.00  0.00    +0.000 A 
ATOM     41  C   UNL     1       6.380   0.710   0.000  0.00  0.00    +0.000 A 
ATOM     42  C   UNL     1       4.951   0.710   0.000  0.00  0.00    +0.000 A 
BRANCH  40  46
ATOM     43  O   UNL     1       6.380   2.360   0.000  0.00  0.00    +0.000 OA
ATOM     44  O   UNL     1       4.236   3.598   0.000  0.00  0.00    +0.000 OA
ATOM     45  O   UNL     1       7.853   4.872   0.000  0.00  0.00    +0.000 OA
ATOM     46  C   UNL     1       5.665   1.948   0.000  0.00  0.00    +0.000 C 
ATOM     47  C   UNL     1       4.951   2.360   0.000  0.00  0.00    +0.000 C 
ATOM     48  C   UNL     1       4.951   3.185   0.000  0.00  0.00    +0.000 C 
ATOM     49  C   UNL     1       6.380   3.185   0.000  0.00  0.00    +0.000 A 
ATOM     50  C   UNL     1       5.665   3.598   0.000  0.00  0.00    +0.000 A 
ATOM     51  C   UNL     1       7.131   3.603   0.000  0.00  0.00    +0.000 A 
ATOM     52  C   UNL     1       5.652   4.457   0.000  0.00  0.00    +0.000 A 
ATOM     53  C   UNL     1       7.137   4.463   0.000  0.00  0.00    +0.000 A 
ATOM     54  C   UNL     1       6.393   4.892   0.000  0.00  0.00    +0.000 A 
ENDBRANCH  40  46
ENDBRANCH  36  37
ENDBRANCH   7  36
TORSDOF 12
