REMARK  Name = 131752459
REMARK  11 active torsions:
REMARK  status: ('A' for Active; 'I' for Inactive)
REMARK    1  A    between atoms: O_1  and  C_19
REMARK    2  A    between atoms: O_1  and  C_23
REMARK    3  A    between atoms: O_8  and  C_26
REMARK    4  A    between atoms: O_8  and  C_30
REMARK    5  A    between atoms: O_10  and  C_29
REMARK    6  A    between atoms: O_10  and  C_33
REMARK    7  A    between atoms: C_20  and  C_28
REMARK    8  A    between atoms: C_25  and  C_29
REMARK    9  A    between atoms: C_31  and  C_35
REMARK   10  A    between atoms: C_33  and  C_37
REMARK   11  A    between atoms: C_37  and  C_44
REMARK                            x       y       z     vdW  Elec       q    Type
REMARK                         _______ _______ _______ _____ _____    ______ ____
ROOT
ATOM      1  O   UNL     1       5.222   0.443   0.000  0.00  0.00    +0.000 OA
ATOM      2  O   UNL     1       3.793  -1.207   0.000  0.00  0.00    +0.000 OA
ATOM      3  O   UNL     1       6.651  -1.207   0.000  0.00  0.00    +0.000 OA
ATOM      4  C   UNL     1       5.222  -1.207   0.000  0.00  0.00    +0.000 C 
ATOM      5  C   UNL     1       4.508  -0.794   0.000  0.00  0.00    +0.000 C 
ATOM      6  C   UNL     1       5.937  -0.794   0.000  0.00  0.00    +0.000 C 
ATOM      7  C   UNL     1       4.508   0.031   0.000  0.00  0.00    +0.000 C 
ATOM      8  C   UNL     1       5.937   0.031   0.000  0.00  0.00    +0.000 C 
ENDROOT
BRANCH   4   9
ATOM      9  O   UNL     1       5.222  -2.032   0.000  0.00  0.00    +0.000 OA
BRANCH   9  15
ATOM     10  O   UNL     1       3.754  -2.108   0.000  0.00  0.00    +0.000 OA
ATOM     11  O   UNL     1       2.900  -3.849   0.000  0.00  0.00    +0.000 OA
ATOM     12  O   UNL     1       5.035  -3.817   0.000  0.00  0.00    +0.000 OA
ATOM     13  C   UNL     1       3.615  -3.436   0.000  0.00  0.00    +0.000 C 
ATOM     14  C   UNL     1       4.422  -3.265   0.000  0.00  0.00    +0.000 C 
ATOM     15  C   UNL     1       4.508  -2.444   0.000  0.00  0.00    +0.000 C 
ATOM     16  C   UNL     1       3.202  -2.722   0.000  0.00  0.00    +0.000 C 
BRANCH  13  18
ATOM     17  O   UNL     1       3.173  -4.795   0.000  0.00  0.00    +0.000 OA
ATOM     18  C   UNL     1       3.786  -4.243   0.000  0.00  0.00    +0.000 C 
ENDBRANCH  13  18
ENDBRANCH   9  15
ENDBRANCH   4   9
BRANCH   8  19
ATOM     19  O   UNL     1       6.651   0.443   0.000  0.00  0.00    +0.000 OA
BRANCH  19  24
ATOM     20  O   UNL     1       7.366   2.506   0.000  0.00  0.00    +0.000 OA
ATOM     21  O   UNL     1       5.222   1.268   0.000  0.00  0.00    +0.000 OA
ATOM     22  O   UNL     1       4.476   2.503   0.000  0.00  0.00    +0.000 OA
ATOM     23  O   UNL     1       5.927   5.038   0.000  0.00  0.00    +0.000 OA
ATOM     24  C   UNL     1       6.651   1.268   0.000  0.00  0.00    +0.000 A 
ATOM     25  C   UNL     1       7.366   1.681   0.000  0.00  0.00    +0.000 A 
ATOM     26  C   UNL     1       5.937   1.681   0.000  0.00  0.00    +0.000 A 
ATOM     27  C   UNL     1       5.937   2.506   0.000  0.00  0.00    +0.000 A 
ATOM     28  C   UNL     1       6.651   2.918   0.000  0.00  0.00    +0.000 A 
ATOM     29  C   UNL     1       5.186   2.924   0.000  0.00  0.00    +0.000 A 
ATOM     30  C   UNL     1       6.665   3.778   0.000  0.00  0.00    +0.000 A 
ATOM     31  C   UNL     1       5.179   3.783   0.000  0.00  0.00    +0.000 A 
ATOM     32  C   UNL     1       5.924   4.213   0.000  0.00  0.00    +0.000 A 
BRANCH  25  34
ATOM     33  O   UNL     1      10.224   0.031   0.000  0.00  0.00    +0.000 OA
ATOM     34  C   UNL     1       8.080   1.268   0.000  0.00  0.00    +0.000 A 
ATOM     35  C   UNL     1       8.080   0.443   0.000  0.00  0.00    +0.000 A 
ATOM     36  C   UNL     1       8.795   1.681   0.000  0.00  0.00    +0.000 A 
ATOM     37  C   UNL     1       8.795   0.031   0.000  0.00  0.00    +0.000 A 
ATOM     38  C   UNL     1       9.509   1.268   0.000  0.00  0.00    +0.000 A 
ATOM     39  C   UNL     1       9.509   0.443   0.000  0.00  0.00    +0.000 A 
ENDBRANCH  25  34
ENDBRANCH  19  24
ENDBRANCH   8  19
BRANCH   7  40
ATOM     40  C   UNL     1       3.793   0.443   0.000  0.00  0.00    +0.000 C 
BRANCH  40  41
ATOM     41  O   UNL     1       3.793   1.268   0.000  0.00  0.00    +0.000 OA
BRANCH  41  43
ATOM     42  O   UNL     1       2.364   1.268   0.000  0.00  0.00    +0.000 OA
ATOM     43  C   UNL     1       3.079   1.681   0.000  0.00  0.00    +0.000 C 
BRANCH  43  44
ATOM     44  C   UNL     1       3.079   2.506   0.000  0.00  0.00    +0.000 C 
BRANCH  44  47
ATOM     45  O   UNL     1       2.364   3.743   0.000  0.00  0.00    +0.000 OA
ATOM     46  O   UNL     1       1.650   2.506   0.000  0.00  0.00    +0.000 OA
ATOM     47  C   UNL     1       2.364   2.918   0.000  0.00  0.00    +0.000 C 
ENDBRANCH  44  47
ENDBRANCH  43  44
ENDBRANCH  41  43
ENDBRANCH  40  41
ENDBRANCH   7  40
TORSDOF 11
