REMARK  Name = 44258425
REMARK  5 active torsions:
REMARK  status: ('A' for Active; 'I' for Inactive)
REMARK    1  A    between atoms: O_1  and  C_15
REMARK    2  A    between atoms: O_1  and  C_20
REMARK    3  A    between atoms: O_5  and  C_19
REMARK    4  A    between atoms: O_5  and  C_26
REMARK    5  A    between atoms: C_33  and  C_35
REMARK                            x       y       z     vdW  Elec       q    Type
REMARK                         _______ _______ _______ _____ _____    ______ ____
ROOT
ATOM      1  O   UNL     1       7.809  -1.380   0.000  0.00  0.00    +0.000 OA
ENDROOT
BRANCH   1   6
ATOM      2  O   UNL     1       9.274   1.101   0.000  0.00  0.00    +0.000 OA
ATOM      3  O   UNL     1       6.380  -0.555   0.000  0.00  0.00    +0.000 OA
ATOM      4  O   UNL     1       6.380   1.095   0.000  0.00  0.00    +0.000 OA
ATOM      5  O   UNL     1       7.076   2.359   0.000  0.00  0.00    +0.000 OA
ATOM      6  C   UNL     1       7.809  -0.555   0.000  0.00  0.00    +0.000 A 
ATOM      7  C   UNL     1       7.094  -0.142   0.000  0.00  0.00    +0.000 A 
ATOM      8  C   UNL     1       8.523  -0.142   0.000  0.00  0.00    +0.000 A 
ATOM      9  C   UNL     1       8.523   0.683   0.000  0.00  0.00    +0.000 A 
ATOM     10  C   UNL     1       7.094   0.683   0.000  0.00  0.00    +0.000 A 
ATOM     11  C   UNL     1       7.809   1.095   0.000  0.00  0.00    +0.000 A 
ATOM     12  C   UNL     1       7.795   1.954   0.000  0.00  0.00    +0.000 A 
ATOM     13  C   UNL     1       9.281   1.960   0.000  0.00  0.00    +0.000 A 
ATOM     14  C   UNL     1       8.536   2.390   0.000  0.00  0.00    +0.000 A 
BRANCH  13  16
ATOM     15  O   UNL     1      12.145   3.599   0.000  0.00  0.00    +0.000 OA
ATOM     16  C   UNL     1       9.997   2.370   0.000  0.00  0.00    +0.000 A 
ATOM     17  C   UNL     1      10.000   3.195   0.000  0.00  0.00    +0.000 A 
ATOM     18  C   UNL     1      10.710   1.955   0.000  0.00  0.00    +0.000 A 
ATOM     19  C   UNL     1      10.716   3.605   0.000  0.00  0.00    +0.000 A 
ATOM     20  C   UNL     1      11.426   2.364   0.000  0.00  0.00    +0.000 A 
ATOM     21  C   UNL     1      11.429   3.189   0.000  0.00  0.00    +0.000 A 
ENDBRANCH  13  16
ENDBRANCH   1   6
BRANCH   1  29
ATOM     22  O   UNL     1       6.380  -1.380   0.000  0.00  0.00    +0.000 OA
ATOM     23  O   UNL     1       6.380  -3.855   0.000  0.00  0.00    +0.000 OA
ATOM     24  O   UNL     1       7.809  -3.030   0.000  0.00  0.00    +0.000 OA
ATOM     25  C   UNL     1       5.665  -2.617   0.000  0.00  0.00    +0.000 C 
ATOM     26  C   UNL     1       6.380  -3.030   0.000  0.00  0.00    +0.000 C 
ATOM     27  C   UNL     1       5.665  -1.792   0.000  0.00  0.00    +0.000 C 
ATOM     28  C   UNL     1       7.094  -2.617   0.000  0.00  0.00    +0.000 C 
ATOM     29  C   UNL     1       7.094  -1.792   0.000  0.00  0.00    +0.000 C 
ATOM     30  C   UNL     1       4.951  -1.380   0.000  0.00  0.00    +0.000 C 
BRANCH  25  31
ATOM     31  O   UNL     1       4.951  -3.030   0.000  0.00  0.00    +0.000 OA
BRANCH  31  36
ATOM     32  O   UNL     1       4.236  -1.792   0.000  0.00  0.00    +0.000 OA
ATOM     33  O   UNL     1       3.522  -3.855   0.000  0.00  0.00    +0.000 OA
ATOM     34  O   UNL     1       2.093  -3.030   0.000  0.00  0.00    +0.000 OA
ATOM     35  O   UNL     1       2.093  -1.380   0.000  0.00  0.00    +0.000 OA
ATOM     36  C   UNL     1       4.236  -2.617   0.000  0.00  0.00    +0.000 C 
ATOM     37  C   UNL     1       3.522  -3.030   0.000  0.00  0.00    +0.000 C 
ATOM     38  C   UNL     1       2.808  -2.617   0.000  0.00  0.00    +0.000 C 
ATOM     39  C   UNL     1       2.808  -1.792   0.000  0.00  0.00    +0.000 C 
ATOM     40  C   UNL     1       3.522  -1.380   0.000  0.00  0.00    +0.000 C 
ENDBRANCH  31  36
ENDBRANCH  25  31
ENDBRANCH   1  29
TORSDOF 5
