REMARK  Name = 131831878
REMARK  11 active torsions:
REMARK  status: ('A' for Active; 'I' for Inactive)
REMARK    1  A    between atoms: S_1  and  O_10
REMARK    2  A    between atoms: O_2  and  C_20
REMARK    3  A    between atoms: O_2  and  C_23
REMARK    4  A    between atoms: O_8  and  C_26
REMARK    5  A    between atoms: O_8  and  C_31
REMARK    6  A    between atoms: O_10  and  C_29
REMARK    7  A    between atoms: O_11  and  C_30
REMARK    8  A    between atoms: O_11  and  C_34
REMARK    9  A    between atoms: C_21  and  C_29
REMARK   10  A    between atoms: C_27  and  C_30
REMARK   11  A    between atoms: C_40  and  C_42
REMARK                            x       y       z     vdW  Elec       q    Type
REMARK                         _______ _______ _______ _____ _____    ______ ____
ROOT
ATOM      1  O   UNL     1       5.222  -1.386   0.000  0.00  0.00    +0.000 OA
ATOM      2  O   UNL     1       5.222  -3.861   0.000  0.00  0.00    +0.000 OA
ATOM      3  O   UNL     1       3.793  -3.036   0.000  0.00  0.00    +0.000 OA
ATOM      4  C   UNL     1       5.937  -2.623   0.000  0.00  0.00    +0.000 C 
ATOM      5  C   UNL     1       5.222  -3.036   0.000  0.00  0.00    +0.000 C 
ATOM      6  C   UNL     1       4.508  -2.623   0.000  0.00  0.00    +0.000 C 
ATOM      7  C   UNL     1       5.937  -1.798   0.000  0.00  0.00    +0.000 C 
ATOM      8  C   UNL     1       4.508  -1.798   0.000  0.00  0.00    +0.000 C 
ENDROOT
BRANCH   4   9
ATOM      9  O   UNL     1       6.651  -3.036   0.000  0.00  0.00    +0.000 OA
BRANCH   9  15
ATOM     10  O   UNL     1       7.452  -1.803   0.000  0.00  0.00    +0.000 OA
ATOM     11  O   UNL     1       9.386  -1.933   0.000  0.00  0.00    +0.000 OA
ATOM     12  O   UNL     1       8.291  -3.766   0.000  0.00  0.00    +0.000 OA
ATOM     13  C   UNL     1       8.671  -2.346   0.000  0.00  0.00    +0.000 C 
ATOM     14  C   UNL     1       8.120  -2.959   0.000  0.00  0.00    +0.000 C 
ATOM     15  C   UNL     1       7.366  -2.623   0.000  0.00  0.00    +0.000 C 
ATOM     16  C   UNL     1       8.259  -1.631   0.000  0.00  0.00    +0.000 C 
BRANCH  13  17
ATOM     17  C   UNL     1       9.284  -2.898   0.000  0.00  0.00    +0.000 C 
BRANCH  17  18
ATOM     18  O   UNL     1      10.069  -2.643   0.000  0.00  0.00    +0.000 OA
BRANCH  18  19
ATOM     19  S   UNL     1      10.682  -3.195   0.000  0.00  0.00    +0.000 S 
ATOM     20  O   UNL     1      11.295  -3.747   0.000  0.00  0.00    +0.000 OA
ATOM     21  O   UNL     1      11.234  -2.582   0.000  0.00  0.00    +0.000 OA
ATOM     22  O   UNL     1      10.130  -3.808   0.000  0.00  0.00    +0.000 OA
ENDBRANCH  18  19
ENDBRANCH  17  18
ENDBRANCH  13  17
ENDBRANCH   9  15
ENDBRANCH   4   9
BRANCH   7  23
ATOM     23  O   UNL     1       6.651  -1.386   0.000  0.00  0.00    +0.000 OA
BRANCH  23  27
ATOM     24  O   UNL     1       8.100   1.141   0.000  0.00  0.00    +0.000 OA
ATOM     25  O   UNL     1       5.211   1.155   0.000  0.00  0.00    +0.000 OA
ATOM     26  O   UNL     1       5.961   2.387   0.000  0.00  0.00    +0.000 OA
ATOM     27  C   UNL     1       6.651  -0.561   0.000  0.00  0.00    +0.000 A 
ATOM     28  C   UNL     1       7.394  -0.128   0.000  0.00  0.00    +0.000 A 
ATOM     29  C   UNL     1       5.909  -0.128   0.000  0.00  0.00    +0.000 A 
ATOM     30  C   UNL     1       7.384   0.731   0.000  0.00  0.00    +0.000 A 
ATOM     31  C   UNL     1       5.919   0.731   0.000  0.00  0.00    +0.000 A 
ATOM     32  C   UNL     1       6.671   1.146   0.000  0.00  0.00    +0.000 A 
ATOM     33  C   UNL     1       6.674   1.971   0.000  0.00  0.00    +0.000 A 
ATOM     34  C   UNL     1       8.103   1.966   0.000  0.00  0.00    +0.000 A 
ATOM     35  C   UNL     1       7.390   2.381   0.000  0.00  0.00    +0.000 A 
BRANCH  34  37
ATOM     36  O   UNL     1      10.967   3.605   0.000  0.00  0.00    +0.000 OA
ATOM     37  C   UNL     1       8.819   2.376   0.000  0.00  0.00    +0.000 A 
ATOM     38  C   UNL     1       8.822   3.201   0.000  0.00  0.00    +0.000 A 
ATOM     39  C   UNL     1       9.532   1.960   0.000  0.00  0.00    +0.000 A 
ATOM     40  C   UNL     1       9.538   3.610   0.000  0.00  0.00    +0.000 A 
ATOM     41  C   UNL     1      10.248   2.370   0.000  0.00  0.00    +0.000 A 
ATOM     42  C   UNL     1      10.251   3.195   0.000  0.00  0.00    +0.000 A 
ENDBRANCH  34  37
ENDBRANCH  23  27
ENDBRANCH   7  23
BRANCH   8  43
ATOM     43  C   UNL     1       3.793  -1.386   0.000  0.00  0.00    +0.000 C 
BRANCH  43  44
ATOM     44  O   UNL     1       3.079  -1.798   0.000  0.00  0.00    +0.000 OA
BRANCH  44  46
ATOM     45  O   UNL     1       2.364  -0.561   0.000  0.00  0.00    +0.000 OA
ATOM     46  C   UNL     1       2.364  -1.386   0.000  0.00  0.00    +0.000 C 
ATOM     47  C   UNL     1       1.650  -1.798   0.000  0.00  0.00    +0.000 C 
ENDBRANCH  44  46
ENDBRANCH  43  44
ENDBRANCH   8  43
TORSDOF 11
