REMARK  Name = 44258936
REMARK  6 active torsions:
REMARK  status: ('A' for Active; 'I' for Inactive)
REMARK    1  A    between atoms: O_3  and  C_21
REMARK    2  A    between atoms: O_3  and  C_29
REMARK    3  A    between atoms: O_7  and  C_25
REMARK    4  A    between atoms: O_7  and  C_30
REMARK    5  A    between atoms: C_26  and  C_28
REMARK    6  A    between atoms: C_33  and  C_38
REMARK                            x       y       z     vdW  Elec       q    Type
REMARK                         _______ _______ _______ _____ _____    ______ ____
ROOT
ATOM      1  O   UNL     1       7.104  -0.237   0.000  0.00  0.00    +0.000 OA
ATOM      2  O   UNL     1       4.960  -1.474   0.000  0.00  0.00    +0.000 OA
ATOM      3  O   UNL     1       4.214  -0.239   0.000  0.00  0.00    +0.000 OA
ATOM      4  C   UNL     1       6.389  -1.474   0.000  0.00  0.00    +0.000 A 
ATOM      5  C   UNL     1       5.662   1.470   0.000  0.00  0.00    +0.000 A 
ATOM      6  C   UNL     1       5.675  -0.237   0.000  0.00  0.00    +0.000 A 
ATOM      7  C   UNL     1       5.675  -1.062   0.000  0.00  0.00    +0.000 A 
ATOM      8  C   UNL     1       7.104  -1.062   0.000  0.00  0.00    +0.000 A 
ATOM      9  C   UNL     1       6.389   0.176   0.000  0.00  0.00    +0.000 A 
ATOM     10  C   UNL     1       6.402   1.035   0.000  0.00  0.00    +0.000 A 
ATOM     11  C   UNL     1       4.917   1.041   0.000  0.00  0.00    +0.000 A 
ATOM     12  C   UNL     1       4.924   0.181   0.000  0.00  0.00    +0.000 A 
ENDROOT
BRANCH   8  14
ATOM     13  O   UNL     1       9.961  -2.712   0.000  0.00  0.00    +0.000 OA
ATOM     14  C   UNL     1       7.818  -1.474   0.000  0.00  0.00    +0.000 A 
ATOM     15  C   UNL     1       7.818  -2.299   0.000  0.00  0.00    +0.000 A 
ATOM     16  C   UNL     1       8.533  -1.062   0.000  0.00  0.00    +0.000 A 
ATOM     17  C   UNL     1       8.533  -2.712   0.000  0.00  0.00    +0.000 A 
ATOM     18  C   UNL     1       9.247  -1.474   0.000  0.00  0.00    +0.000 A 
ATOM     19  C   UNL     1       9.247  -2.299   0.000  0.00  0.00    +0.000 A 
ENDBRANCH   8  14
BRANCH   4  20
ATOM     20  O   UNL     1       6.389  -2.299   0.000  0.00  0.00    +0.000 OA
BRANCH  20  29
ATOM     21  O   UNL     1       4.960  -2.299   0.000  0.00  0.00    +0.000 OA
ATOM     22  O   UNL     1       4.960  -4.774   0.000  0.00  0.00    +0.000 OA
ATOM     23  O   UNL     1       3.531  -3.949   0.000  0.00  0.00    +0.000 OA
ATOM     24  O   UNL     1       6.389  -3.949   0.000  0.00  0.00    +0.000 OA
ATOM     25  C   UNL     1       4.960  -3.949   0.000  0.00  0.00    +0.000 C 
ATOM     26  C   UNL     1       4.246  -3.537   0.000  0.00  0.00    +0.000 C 
ATOM     27  C   UNL     1       5.675  -3.537   0.000  0.00  0.00    +0.000 C 
ATOM     28  C   UNL     1       4.246  -2.712   0.000  0.00  0.00    +0.000 C 
ATOM     29  C   UNL     1       5.675  -2.712   0.000  0.00  0.00    +0.000 C 
ATOM     30  C   UNL     1       3.531  -2.299   0.000  0.00  0.00    +0.000 C 
ENDBRANCH  20  29
ENDBRANCH   4  20
BRANCH   5  31
ATOM     31  O   UNL     1       5.665   2.295   0.000  0.00  0.00    +0.000 OA
BRANCH  31  39
ATOM     32  O   UNL     1       4.236   2.301   0.000  0.00  0.00    +0.000 OA
ATOM     33  O   UNL     1       4.245   4.776   0.000  0.00  0.00    +0.000 OA
ATOM     34  O   UNL     1       5.671   3.945   0.000  0.00  0.00    +0.000 OA
ATOM     35  O   UNL     1       2.813   3.957   0.000  0.00  0.00    +0.000 OA
ATOM     36  C   UNL     1       4.242   3.951   0.000  0.00  0.00    +0.000 C 
ATOM     37  C   UNL     1       4.955   3.536   0.000  0.00  0.00    +0.000 C 
ATOM     38  C   UNL     1       3.526   3.541   0.000  0.00  0.00    +0.000 C 
ATOM     39  C   UNL     1       4.952   2.711   0.000  0.00  0.00    +0.000 C 
ATOM     40  C   UNL     1       3.523   2.716   0.000  0.00  0.00    +0.000 C 
BRANCH  40  43
ATOM     41  O   UNL     1       2.094   2.722   0.000  0.00  0.00    +0.000 OA
ATOM     42  O   UNL     1       2.804   1.482   0.000  0.00  0.00    +0.000 OA
ATOM     43  C   UNL     1       2.807   2.307   0.000  0.00  0.00    +0.000 C 
ENDBRANCH  40  43
ENDBRANCH  31  39
ENDBRANCH   5  31
TORSDOF 6
