REMARK  Name = 42607694
REMARK  9 active torsions:
REMARK  status: ('A' for Active; 'I' for Inactive)
REMARK    1  A    between atoms: O_2  and  C_16
REMARK    2  A    between atoms: O_2  and  C_18
REMARK    3  A    between atoms: O_6  and  C_17
REMARK    4  A    between atoms: O_6  and  C_22
REMARK    5  A    between atoms: C_14  and  C_17
REMARK    6  A    between atoms: C_19  and  C_21
REMARK    7  A    between atoms: C_21  and  C_24
REMARK    8  A    between atoms: C_24  and  C_27
REMARK    9  A    between atoms: C_27  and  C_29
REMARK                            x       y       z     vdW  Elec       q    Type
REMARK                         _______ _______ _______ _____ _____    ______ ____
ROOT
ATOM      1  O   UNL     1       8.080   2.347   0.000  0.00  0.00    +0.000 OA
ATOM      2  O   UNL     1       5.222   2.347   0.000  0.00  0.00    +0.000 OA
ATOM      3  C   UNL     1       6.652   0.697   0.000  0.00  0.00    +0.000 A 
ATOM      4  C   UNL     1       7.366   1.110   0.000  0.00  0.00    +0.000 A 
ATOM      5  C   UNL     1       5.937   1.110   0.000  0.00  0.00    +0.000 A 
ATOM      6  C   UNL     1       7.366   1.935   0.000  0.00  0.00    +0.000 A 
ATOM      7  C   UNL     1       5.937   1.935   0.000  0.00  0.00    +0.000 A 
ATOM      8  C   UNL     1       6.652   2.347   0.000  0.00  0.00    +0.000 A 
ENDROOT
BRANCH   4  10
ATOM      9  O   UNL     1       8.080  -0.128   0.000  0.00  0.00    +0.000 OA
ATOM     10  C   UNL     1       8.080   0.697   0.000  0.00  0.00    +0.000 C 
BRANCH  10  11
ATOM     11  C   UNL     1       8.795   1.110   0.000  0.00  0.00    +0.000 C 
BRANCH  11  12
ATOM     12  C   UNL     1       9.509   0.697   0.000  0.00  0.00    +0.000 C 
BRANCH  12  14
ATOM     13  O   UNL     1      12.367   2.347   0.000  0.00  0.00    +0.000 OA
ATOM     14  C   UNL     1      10.224   1.110   0.000  0.00  0.00    +0.000 A 
ATOM     15  C   UNL     1      10.938   0.697   0.000  0.00  0.00    +0.000 A 
ATOM     16  C   UNL     1      10.224   1.935   0.000  0.00  0.00    +0.000 A 
ATOM     17  C   UNL     1      11.653   1.110   0.000  0.00  0.00    +0.000 A 
ATOM     18  C   UNL     1      10.938   2.347   0.000  0.00  0.00    +0.000 A 
ATOM     19  C   UNL     1      11.653   1.935   0.000  0.00  0.00    +0.000 A 
ENDBRANCH  12  14
ENDBRANCH  11  12
ENDBRANCH  10  11
ENDBRANCH   4  10
BRANCH   3  20
ATOM     20  O   UNL     1       6.652  -0.128   0.000  0.00  0.00    +0.000 OA
BRANCH  20  29
ATOM     21  O   UNL     1       5.222  -0.128   0.000  0.00  0.00    +0.000 OA
ATOM     22  O   UNL     1       3.793  -1.778   0.000  0.00  0.00    +0.000 OA
ATOM     23  O   UNL     1       5.222  -2.603   0.000  0.00  0.00    +0.000 OA
ATOM     24  O   UNL     1       6.652  -1.778   0.000  0.00  0.00    +0.000 OA
ATOM     25  C   UNL     1       4.508  -1.365   0.000  0.00  0.00    +0.000 C 
ATOM     26  C   UNL     1       5.222  -1.778   0.000  0.00  0.00    +0.000 C 
ATOM     27  C   UNL     1       4.508  -0.540   0.000  0.00  0.00    +0.000 C 
ATOM     28  C   UNL     1       5.937  -1.365   0.000  0.00  0.00    +0.000 C 
ATOM     29  C   UNL     1       5.937  -0.540   0.000  0.00  0.00    +0.000 C 
BRANCH  27  30
ATOM     30  C   UNL     1       3.793  -0.128   0.000  0.00  0.00    +0.000 C 
BRANCH  30  31
ATOM     31  O   UNL     1       3.079  -0.540   0.000  0.00  0.00    +0.000 OA
BRANCH  31  33
ATOM     32  O   UNL     1       2.365   0.697   0.000  0.00  0.00    +0.000 OA
ATOM     33  C   UNL     1       2.365  -0.128   0.000  0.00  0.00    +0.000 C 
ATOM     34  C   UNL     1       1.650  -0.540   0.000  0.00  0.00    +0.000 C 
ENDBRANCH  31  33
ENDBRANCH  30  31
ENDBRANCH  27  30
ENDBRANCH  20  29
ENDBRANCH   3  20
TORSDOF 9
