REMARK  Name = 44259570
REMARK  4 active torsions:
REMARK  status: ('A' for Active; 'I' for Inactive)
REMARK    1  A    between atoms: S_1  and  O_3
REMARK    2  A    between atoms: O_3  and  C_14
REMARK    3  A    between atoms: O_4  and  C_19
REMARK    4  A    between atoms: C_13  and  C_16
REMARK                            x       y       z     vdW  Elec       q    Type
REMARK                         _______ _______ _______ _____ _____    ______ ____
ROOT
ATOM      1  O   UNL     1       5.278  -0.903   0.000  0.00  0.00    +0.000 OA
ATOM      2  O   UNL     1       3.836   1.600   0.000  0.00  0.00    +0.000 OA
ATOM      3  O   UNL     1       5.278   1.572   0.000  0.00  0.00    +0.000 OA
ATOM      4  C   UNL     1       4.564   0.334   0.000  0.00  0.00    +0.000 A 
ATOM      5  C   UNL     1       4.564  -0.491   0.000  0.00  0.00    +0.000 A 
ATOM      6  C   UNL     1       5.993  -0.491   0.000  0.00  0.00    +0.000 A 
ATOM      7  C   UNL     1       5.993   0.334   0.000  0.00  0.00    +0.000 A 
ATOM      8  C   UNL     1       5.278   0.747   0.000  0.00  0.00    +0.000 A 
ATOM      9  C   UNL     1       3.826   0.775   0.000  0.00  0.00    +0.000 A 
ATOM     10  C   UNL     1       3.826  -0.932   0.000  0.00  0.00    +0.000 A 
ATOM     11  C   UNL     1       3.079  -0.508   0.000  0.00  0.00    +0.000 A 
ATOM     12  C   UNL     1       3.079   0.351   0.000  0.00  0.00    +0.000 A 
ENDROOT
BRANCH   6  14
ATOM     13  O   UNL     1       8.851  -2.141   0.000  0.00  0.00    +0.000 OA
ATOM     14  C   UNL     1       6.707  -0.903   0.000  0.00  0.00    +0.000 A 
ATOM     15  C   UNL     1       7.422  -0.491   0.000  0.00  0.00    +0.000 A 
ATOM     16  C   UNL     1       6.707  -1.728   0.000  0.00  0.00    +0.000 A 
ATOM     17  C   UNL     1       8.136  -0.903   0.000  0.00  0.00    +0.000 A 
ATOM     18  C   UNL     1       7.422  -2.141   0.000  0.00  0.00    +0.000 A 
ATOM     19  C   UNL     1       8.136  -1.728   0.000  0.00  0.00    +0.000 A 
ENDBRANCH   6  14
BRANCH  11  20
ATOM     20  O   UNL     1       2.366  -0.923   0.000  0.00  0.00    +0.000 OA
ATOM     21  C   UNL     1       1.650  -0.514   0.000  0.00  0.00    +0.000 C 
ENDBRANCH  11  20
BRANCH   7  22
ATOM     22  O   UNL     1       6.707   0.747   0.000  0.00  0.00    +0.000 OA
BRANCH  22  23
ATOM     23  S   UNL     1       6.707   1.572   0.000  0.00  0.00    +0.000 S 
ATOM     24  O   UNL     1       6.707   2.397   0.000  0.00  0.00    +0.000 OA
ATOM     25  O   UNL     1       7.532   1.572   0.000  0.00  0.00    +0.000 OA
ATOM     26  O   UNL     1       5.882   1.572   0.000  0.00  0.00    +0.000 OA
ENDBRANCH  22  23
ENDBRANCH   7  22
TORSDOF 4
