REMARK  Name = 42607974
REMARK  16 active torsions:
REMARK  status: ('A' for Active; 'I' for Inactive)
REMARK    1  A    between atoms: O_2  and  C_18
REMARK    2  A    between atoms: O_2  and  C_25
REMARK    3  A    between atoms: O_3  and  C_19
REMARK    4  A    between atoms: O_3  and  C_26
REMARK    5  A    between atoms: O_4  and  C_20
REMARK    6  A    between atoms: O_4  and  C_27
REMARK    7  A    between atoms: O_5  and  C_22
REMARK    8  A    between atoms: O_5  and  C_24
REMARK    9  A    between atoms: O_6  and  C_23
REMARK   10  A    between atoms: O_6  and  C_37
REMARK   11  A    between atoms: O_14  and  C_44
REMARK   12  A    between atoms: O_14  and  C_47
REMARK   13  A    between atoms: O_15  and  C_46
REMARK   14  A    between atoms: O_15  and  C_48
REMARK   15  A    between atoms: C_21  and  C_23
REMARK   16  A    between atoms: C_32  and  C_40
REMARK                            x       y       z     vdW  Elec       q    Type
REMARK                         _______ _______ _______ _____ _____    ______ ____
ROOT
ATOM      1  O   UNL     1       7.385   1.267   0.000  0.00  0.00    +0.000 OA
ATOM      2  O   UNL     1       4.496   1.281   0.000  0.00  0.00    +0.000 OA
ATOM      3  O   UNL     1       5.247   2.513   0.000  0.00  0.00    +0.000 OA
ATOM      4  C   UNL     1       5.937  -0.434   0.000  0.00  0.00    +0.000 A 
ATOM      5  C   UNL     1       6.679  -0.002   0.000  0.00  0.00    +0.000 A 
ATOM      6  C   UNL     1       6.669   0.858   0.000  0.00  0.00    +0.000 A 
ATOM      7  C   UNL     1       5.194  -0.002   0.000  0.00  0.00    +0.000 A 
ATOM      8  C   UNL     1       5.957   1.273   0.000  0.00  0.00    +0.000 A 
ATOM      9  C   UNL     1       7.389   2.092   0.000  0.00  0.00    +0.000 C 
ATOM     10  C   UNL     1       6.676   2.508   0.000  0.00  0.00    +0.000 C 
ATOM     11  C   UNL     1       5.204   0.858   0.000  0.00  0.00    +0.000 A 
ATOM     12  C   UNL     1       5.960   2.098   0.000  0.00  0.00    +0.000 C 
ENDROOT
BRANCH   9  13
ATOM     13  C   UNL     1       8.105   2.502   0.000  0.00  0.00    +0.000 A 
ATOM     14  C   UNL     1       8.818   2.087   0.000  0.00  0.00    +0.000 A 
ATOM     15  C   UNL     1       8.108   3.327   0.000  0.00  0.00    +0.000 A 
ATOM     16  C   UNL     1       9.534   2.497   0.000  0.00  0.00    +0.000 A 
ATOM     17  C   UNL     1       8.824   3.737   0.000  0.00  0.00    +0.000 A 
ATOM     18  C   UNL     1       9.537   3.322   0.000  0.00  0.00    +0.000 A 
BRANCH  16  19
ATOM     19  O   UNL     1      10.246   2.081   0.000  0.00  0.00    +0.000 OA
BRANCH  19  21
ATOM     20  O   UNL     1      10.966   3.316   0.000  0.00  0.00    +0.000 OA
ATOM     21  C   UNL     1      10.963   2.491   0.000  0.00  0.00    +0.000 C 
ATOM     22  C   UNL     1      11.675   2.076   0.000  0.00  0.00    +0.000 C 
ENDBRANCH  19  21
ENDBRANCH  16  19
BRANCH  18  23
ATOM     23  O   UNL     1      10.253   3.731   0.000  0.00  0.00    +0.000 OA
BRANCH  23  25
ATOM     24  O   UNL     1       9.543   4.972   0.000  0.00  0.00    +0.000 OA
ATOM     25  C   UNL     1      10.256   4.556   0.000  0.00  0.00    +0.000 C 
ATOM     26  C   UNL     1      10.972   4.966   0.000  0.00  0.00    +0.000 C 
ENDBRANCH  23  25
ENDBRANCH  18  23
ENDBRANCH   9  13
BRANCH   4  27
ATOM     27  O   UNL     1       5.937  -1.259   0.000  0.00  0.00    +0.000 OA
BRANCH  27  33
ATOM     28  O   UNL     1       4.508  -1.259   0.000  0.00  0.00    +0.000 OA
ATOM     29  C   UNL     1       4.508  -2.909   0.000  0.00  0.00    +0.000 C 
ATOM     30  C   UNL     1       3.793  -2.497   0.000  0.00  0.00    +0.000 C 
ATOM     31  C   UNL     1       5.222  -2.497   0.000  0.00  0.00    +0.000 C 
ATOM     32  C   UNL     1       3.793  -1.672   0.000  0.00  0.00    +0.000 C 
ATOM     33  C   UNL     1       5.222  -1.672   0.000  0.00  0.00    +0.000 C 
BRANCH  31  34
ATOM     34  O   UNL     1       5.937  -2.909   0.000  0.00  0.00    +0.000 OA
BRANCH  34  36
ATOM     35  O   UNL     1       6.651  -1.672   0.000  0.00  0.00    +0.000 OA
ATOM     36  C   UNL     1       6.651  -2.497   0.000  0.00  0.00    +0.000 C 
ATOM     37  C   UNL     1       7.366  -2.909   0.000  0.00  0.00    +0.000 C 
ENDBRANCH  34  36
ENDBRANCH  31  34
BRANCH  30  38
ATOM     38  O   UNL     1       3.079  -2.909   0.000  0.00  0.00    +0.000 OA
BRANCH  38  40
ATOM     39  O   UNL     1       2.364  -1.672   0.000  0.00  0.00    +0.000 OA
ATOM     40  C   UNL     1       2.364  -2.497   0.000  0.00  0.00    +0.000 C 
ATOM     41  C   UNL     1       1.650  -2.909   0.000  0.00  0.00    +0.000 C 
ENDBRANCH  38  40
ENDBRANCH  30  38
BRANCH  32  42
ATOM     42  C   UNL     1       3.079  -1.259   0.000  0.00  0.00    +0.000 C 
BRANCH  42  43
ATOM     43  O   UNL     1       3.079  -0.434   0.000  0.00  0.00    +0.000 OA
BRANCH  43  45
ATOM     44  O   UNL     1       1.650  -0.434   0.000  0.00  0.00    +0.000 OA
ATOM     45  C   UNL     1       2.364  -0.022   0.000  0.00  0.00    +0.000 C 
ATOM     46  C   UNL     1       2.364   0.803   0.000  0.00  0.00    +0.000 C 
ENDBRANCH  43  45
ENDBRANCH  42  43
ENDBRANCH  32  42
BRANCH  29  47
ATOM     47  O   UNL     1       4.508  -3.734   0.000  0.00  0.00    +0.000 OA
BRANCH  47  49
ATOM     48  O   UNL     1       3.079  -3.734   0.000  0.00  0.00    +0.000 OA
ATOM     49  C   UNL     1       3.793  -4.147   0.000  0.00  0.00    +0.000 C 
ATOM     50  C   UNL     1       3.793  -4.972   0.000  0.00  0.00    +0.000 C 
ENDBRANCH  47  49
ENDBRANCH  29  47
ENDBRANCH  27  33
ENDBRANCH   4  27
TORSDOF 16
