REMARK  Name = 44258926
REMARK  5 active torsions:
REMARK  status: ('A' for Active; 'I' for Inactive)
REMARK    1  A    between atoms: O_1  and  C_15
REMARK    2  A    between atoms: O_1  and  C_16
REMARK    3  A    between atoms: O_8  and  C_24
REMARK    4  A    between atoms: O_8  and  C_26
REMARK    5  A    between atoms: C_27  and  C_31
REMARK                            x       y       z     vdW  Elec       q    Type
REMARK                         _______ _______ _______ _____ _____    ______ ____
ROOT
ATOM      1  O   UNL     1       4.951   1.316   0.000  0.00  0.00    +0.000 OA
ENDROOT
BRANCH   1   6
ATOM      2  O   UNL     1       6.380   2.966   0.000  0.00  0.00    +0.000 OA
ATOM      3  O   UNL     1       6.380   0.491   0.000  0.00  0.00    +0.000 OA
ATOM      4  O   UNL     1       7.822   0.462   0.000  0.00  0.00    +0.000 OA
ATOM      5  O   UNL     1       9.292   2.986   0.000  0.00  0.00    +0.000 OA
ATOM      6  C   UNL     1       5.665   1.728   0.000  0.00  0.00    +0.000 A 
ATOM      7  C   UNL     1       5.665   2.553   0.000  0.00  0.00    +0.000 A 
ATOM      8  C   UNL     1       6.380   1.316   0.000  0.00  0.00    +0.000 A 
ATOM      9  C   UNL     1       7.094   1.728   0.000  0.00  0.00    +0.000 A 
ATOM     10  C   UNL     1       7.094   2.553   0.000  0.00  0.00    +0.000 A 
ATOM     11  C   UNL     1       7.832   1.287   0.000  0.00  0.00    +0.000 A 
ATOM     12  C   UNL     1       7.832   2.994   0.000  0.00  0.00    +0.000 A 
ATOM     13  C   UNL     1       8.579   1.711   0.000  0.00  0.00    +0.000 A 
ATOM     14  C   UNL     1       8.579   2.571   0.000  0.00  0.00    +0.000 A 
BRANCH   7  16
ATOM     15  O   UNL     1       2.808   4.203   0.000  0.00  0.00    +0.000 OA
ATOM     16  C   UNL     1       4.951   2.966   0.000  0.00  0.00    +0.000 A 
ATOM     17  C   UNL     1       4.236   2.553   0.000  0.00  0.00    +0.000 A 
ATOM     18  C   UNL     1       4.951   3.791   0.000  0.00  0.00    +0.000 A 
ATOM     19  C   UNL     1       3.522   2.966   0.000  0.00  0.00    +0.000 A 
ATOM     20  C   UNL     1       4.236   4.203   0.000  0.00  0.00    +0.000 A 
ATOM     21  C   UNL     1       3.522   3.791   0.000  0.00  0.00    +0.000 A 
ENDBRANCH   7  16
ENDBRANCH   1   6
BRANCH   1  29
ATOM     22  O   UNL     1       5.665   0.078   0.000  0.00  0.00    +0.000 OA
ATOM     23  O   UNL     1       3.522  -1.159   0.000  0.00  0.00    +0.000 OA
ATOM     24  O   UNL     1       3.522   0.491   0.000  0.00  0.00    +0.000 OA
ATOM     25  C   UNL     1       4.951  -1.159   0.000  0.00  0.00    +0.000 C 
ATOM     26  C   UNL     1       4.236  -0.747   0.000  0.00  0.00    +0.000 C 
ATOM     27  C   UNL     1       4.236   0.078   0.000  0.00  0.00    +0.000 C 
ATOM     28  C   UNL     1       5.665  -0.747   0.000  0.00  0.00    +0.000 C 
ATOM     29  C   UNL     1       4.951   0.491   0.000  0.00  0.00    +0.000 C 
BRANCH  25  30
ATOM     30  O   UNL     1       4.951  -1.984   0.000  0.00  0.00    +0.000 OA
BRANCH  30  35
ATOM     31  O   UNL     1       3.522  -1.984   0.000  0.00  0.00    +0.000 OA
ATOM     32  O   UNL     1       4.951  -3.634   0.000  0.00  0.00    +0.000 OA
ATOM     33  O   UNL     1       3.522  -4.459   0.000  0.00  0.00    +0.000 OA
ATOM     34  O   UNL     1       2.093  -3.634   0.000  0.00  0.00    +0.000 OA
ATOM     35  C   UNL     1       4.236  -2.397   0.000  0.00  0.00    +0.000 C 
ATOM     36  C   UNL     1       4.236  -3.222   0.000  0.00  0.00    +0.000 C 
ATOM     37  C   UNL     1       3.522  -3.634   0.000  0.00  0.00    +0.000 C 
ATOM     38  C   UNL     1       2.808  -3.222   0.000  0.00  0.00    +0.000 C 
ATOM     39  C   UNL     1       2.808  -2.397   0.000  0.00  0.00    +0.000 C 
ATOM     40  C   UNL     1       2.093  -1.984   0.000  0.00  0.00    +0.000 C 
ENDBRANCH  30  35
ENDBRANCH  25  30
ENDBRANCH   1  29
TORSDOF 5
