REMARK  Name = 44257832
REMARK  7 active torsions:
REMARK  status: ('A' for Active; 'I' for Inactive)
REMARK    1  A    between atoms: O_2  and  C_14
REMARK    2  A    between atoms: O_2  and  C_20
REMARK    3  A    between atoms: O_3  and  C_17
REMARK    4  A    between atoms: O_3  and  C_19
REMARK    5  A    between atoms: O_6  and  C_18
REMARK    6  A    between atoms: C_16  and  C_18
REMARK    7  A    between atoms: C_29  and  C_31
REMARK                            x       y       z     vdW  Elec       q    Type
REMARK                         _______ _______ _______ _____ _____    ______ ____
ROOT
ATOM      1  O   UNL     1       7.385   1.219   0.000  0.00  0.00    +0.000 OA
ATOM      2  O   UNL     1       4.496   1.233   0.000  0.00  0.00    +0.000 OA
ATOM      3  O   UNL     1       5.247   2.465   0.000  0.00  0.00    +0.000 OA
ATOM      4  C   UNL     1       5.937  -0.482   0.000  0.00  0.00    +0.000 A 
ATOM      5  C   UNL     1       6.679  -0.050   0.000  0.00  0.00    +0.000 A 
ATOM      6  C   UNL     1       5.194  -0.050   0.000  0.00  0.00    +0.000 A 
ATOM      7  C   UNL     1       6.669   0.810   0.000  0.00  0.00    +0.000 A 
ATOM      8  C   UNL     1       5.957   1.225   0.000  0.00  0.00    +0.000 A 
ATOM      9  C   UNL     1       5.204   0.810   0.000  0.00  0.00    +0.000 A 
ATOM     10  C   UNL     1       5.960   2.050   0.000  0.00  0.00    +0.000 A 
ATOM     11  C   UNL     1       7.389   2.044   0.000  0.00  0.00    +0.000 A 
ATOM     12  C   UNL     1       6.676   2.460   0.000  0.00  0.00    +0.000 A 
ENDROOT
BRANCH  11  14
ATOM     13  O   UNL     1      10.253   3.683   0.000  0.00  0.00    +0.000 OA
ATOM     14  C   UNL     1       8.105   2.454   0.000  0.00  0.00    +0.000 A 
ATOM     15  C   UNL     1       8.108   3.279   0.000  0.00  0.00    +0.000 A 
ATOM     16  C   UNL     1       8.818   2.039   0.000  0.00  0.00    +0.000 A 
ATOM     17  C   UNL     1       8.824   3.689   0.000  0.00  0.00    +0.000 A 
ATOM     18  C   UNL     1       9.534   2.449   0.000  0.00  0.00    +0.000 A 
ATOM     19  C   UNL     1       9.537   3.273   0.000  0.00  0.00    +0.000 A 
ENDBRANCH  11  14
BRANCH   4  20
ATOM     20  O   UNL     1       5.937  -1.307   0.000  0.00  0.00    +0.000 OA
BRANCH  20  28
ATOM     21  O   UNL     1       4.508  -1.307   0.000  0.00  0.00    +0.000 OA
ATOM     22  O   UNL     1       4.508  -3.782   0.000  0.00  0.00    +0.000 OA
ATOM     23  O   UNL     1       3.079  -2.957   0.000  0.00  0.00    +0.000 OA
ATOM     24  C   UNL     1       4.508  -2.957   0.000  0.00  0.00    +0.000 C 
ATOM     25  C   UNL     1       5.222  -2.545   0.000  0.00  0.00    +0.000 C 
ATOM     26  C   UNL     1       3.793  -2.545   0.000  0.00  0.00    +0.000 C 
ATOM     27  C   UNL     1       3.793  -1.720   0.000  0.00  0.00    +0.000 C 
ATOM     28  C   UNL     1       5.222  -1.720   0.000  0.00  0.00    +0.000 C 
BRANCH  27  30
ATOM     29  O   UNL     1       3.079  -0.482   0.000  0.00  0.00    +0.000 OA
ATOM     30  C   UNL     1       3.079  -1.307   0.000  0.00  0.00    +0.000 C 
BRANCH  30  31
ATOM     31  O   UNL     1       2.364  -1.720   0.000  0.00  0.00    +0.000 OA
ATOM     32  C   UNL     1       1.650  -1.307   0.000  0.00  0.00    +0.000 C 
ENDBRANCH  30  31
ENDBRANCH  27  30
BRANCH  25  33
ATOM     33  O   UNL     1       5.937  -2.957   0.000  0.00  0.00    +0.000 OA
BRANCH  33  35
ATOM     34  O   UNL     1       5.222  -4.195   0.000  0.00  0.00    +0.000 OA
ATOM     35  C   UNL     1       5.937  -3.782   0.000  0.00  0.00    +0.000 C 
ATOM     36  C   UNL     1       6.651  -4.195   0.000  0.00  0.00    +0.000 C 
ENDBRANCH  33  35
ENDBRANCH  25  33
ENDBRANCH  20  28
ENDBRANCH   4  20
TORSDOF 7
