REMARK  Name = 44258275
REMARK  11 active torsions:
REMARK  status: ('A' for Active; 'I' for Inactive)
REMARK    1  A    between atoms: O_3  and  C_27
REMARK    2  A    between atoms: O_3  and  C_32
REMARK    3  A    between atoms: O_6  and  C_30
REMARK    4  A    between atoms: O_6  and  C_40
REMARK    5  A    between atoms: O_12  and  C_37
REMARK    6  A    between atoms: O_12  and  C_41
REMARK    7  A    between atoms: O_18  and  C_47
REMARK    8  A    between atoms: O_19  and  C_48
REMARK    9  A    between atoms: C_22  and  C_32
REMARK   10  A    between atoms: C_35  and  C_39
REMARK   11  A    between atoms: C_49  and  C_50
REMARK                            x       y       z     vdW  Elec       q    Type
REMARK                         _______ _______ _______ _____ _____    ______ ____
ROOT
ATOM      1  O   UNL     1       6.365   1.048   0.000  0.00  0.00    +0.000 OA
ATOM      2  O   UNL     1       4.908  -1.448   0.000  0.00  0.00    +0.000 OA
ATOM      3  O   UNL     1       4.217  -0.181   0.000  0.00  0.00    +0.000 OA
ATOM      4  C   UNL     1       7.114  -1.058   0.000  0.00  0.00    +0.000 A 
ATOM      5  C   UNL     1       7.111  -0.198   0.000  0.00  0.00    +0.000 A 
ATOM      6  C   UNL     1       6.368  -1.484   0.000  0.00  0.00    +0.000 A 
ATOM      7  C   UNL     1       6.362   0.223   0.000  0.00  0.00    +0.000 A 
ATOM      8  C   UNL     1       5.646  -0.187   0.000  0.00  0.00    +0.000 A 
ATOM      9  C   UNL     1       5.629  -1.046   0.000  0.00  0.00    +0.000 A 
ATOM     10  C   UNL     1       5.652   1.463   0.000  0.00  0.00    +0.000 A 
ATOM     11  C   UNL     1       4.933   0.228   0.000  0.00  0.00    +0.000 A 
ATOM     12  C   UNL     1       4.936   1.053   0.000  0.00  0.00    +0.000 A 
ENDROOT
BRANCH  10  16
ATOM     13  C   UNL     1       5.662   3.938   0.000  0.00  0.00    +0.000 A 
ATOM     14  C   UNL     1       6.374   3.523   0.000  0.00  0.00    +0.000 A 
ATOM     15  C   UNL     1       4.946   3.528   0.000  0.00  0.00    +0.000 A 
ATOM     16  C   UNL     1       5.655   2.288   0.000  0.00  0.00    +0.000 A 
ATOM     17  C   UNL     1       6.371   2.698   0.000  0.00  0.00    +0.000 A 
ATOM     18  C   UNL     1       4.942   2.703   0.000  0.00  0.00    +0.000 A 
BRANCH  14  19
ATOM     19  O   UNL     1       7.090   3.932   0.000  0.00  0.00    +0.000 OA
ATOM     20  C   UNL     1       7.803   3.517   0.000  0.00  0.00    +0.000 C 
ENDBRANCH  14  19
BRANCH  15  21
ATOM     21  O   UNL     1       4.233   3.943   0.000  0.00  0.00    +0.000 OA
ATOM     22  C   UNL     1       3.517   3.534   0.000  0.00  0.00    +0.000 C 
ENDBRANCH  15  21
BRANCH  13  23
ATOM     23  O   UNL     1       5.665   4.763   0.000  0.00  0.00    +0.000 OA
BRANCH  23  32
ATOM     24  O   UNL     1       4.236   4.769   0.000  0.00  0.00    +0.000 OA
ATOM     25  O   UNL     1       2.813   6.424   0.000  0.00  0.00    +0.000 OA
ATOM     26  O   UNL     1       4.245   7.243   0.000  0.00  0.00    +0.000 OA
ATOM     27  O   UNL     1       5.671   6.413   0.000  0.00  0.00    +0.000 OA
ATOM     28  C   UNL     1       3.526   6.009   0.000  0.00  0.00    +0.000 C 
ATOM     29  C   UNL     1       4.242   6.418   0.000  0.00  0.00    +0.000 C 
ATOM     30  C   UNL     1       3.523   5.184   0.000  0.00  0.00    +0.000 C 
ATOM     31  C   UNL     1       4.955   6.003   0.000  0.00  0.00    +0.000 C 
ATOM     32  C   UNL     1       4.952   5.178   0.000  0.00  0.00    +0.000 C 
BRANCH  30  34
ATOM     33  O   UNL     1       2.094   5.189   0.000  0.00  0.00    +0.000 OA
ATOM     34  C   UNL     1       2.807   4.774   0.000  0.00  0.00    +0.000 C 
ENDBRANCH  30  34
ENDBRANCH  23  32
ENDBRANCH  13  23
ENDBRANCH  10  16
BRANCH   4  35
ATOM     35  O   UNL     1       7.829  -1.470   0.000  0.00  0.00    +0.000 OA
BRANCH  35  44
ATOM     36  O   UNL     1       7.114  -2.708   0.000  0.00  0.00    +0.000 OA
ATOM     37  O   UNL     1       7.829  -4.770   0.000  0.00  0.00    +0.000 OA
ATOM     38  O   UNL     1       9.258  -3.945   0.000  0.00  0.00    +0.000 OA
ATOM     39  O   UNL     1       9.258  -2.295   0.000  0.00  0.00    +0.000 OA
ATOM     40  C   UNL     1       7.114  -3.533   0.000  0.00  0.00    +0.000 C 
ATOM     41  C   UNL     1       7.829  -3.945   0.000  0.00  0.00    +0.000 C 
ATOM     42  C   UNL     1       8.543  -3.533   0.000  0.00  0.00    +0.000 C 
ATOM     43  C   UNL     1       8.543  -2.708   0.000  0.00  0.00    +0.000 C 
ATOM     44  C   UNL     1       7.829  -2.295   0.000  0.00  0.00    +0.000 C 
BRANCH  40  45
ATOM     45  C   UNL     1       6.400  -3.945   0.000  0.00  0.00    +0.000 C 
BRANCH  45  46
ATOM     46  O   UNL     1       6.400  -4.770   0.000  0.00  0.00    +0.000 OA
BRANCH  46  52
ATOM     47  O   UNL     1       4.971  -4.770   0.000  0.00  0.00    +0.000 OA
ATOM     48  O   UNL     1       6.400  -6.420   0.000  0.00  0.00    +0.000 OA
ATOM     49  O   UNL     1       4.971  -7.245   0.000  0.00  0.00    +0.000 OA
ATOM     50  O   UNL     1       3.542  -6.420   0.000  0.00  0.00    +0.000 OA
ATOM     51  C   UNL     1       5.685  -6.008   0.000  0.00  0.00    +0.000 C 
ATOM     52  C   UNL     1       5.685  -5.183   0.000  0.00  0.00    +0.000 C 
ATOM     53  C   UNL     1       4.971  -6.420   0.000  0.00  0.00    +0.000 C 
ATOM     54  C   UNL     1       4.256  -6.008   0.000  0.00  0.00    +0.000 C 
ATOM     55  C   UNL     1       4.256  -5.183   0.000  0.00  0.00    +0.000 C 
ATOM     56  C   UNL     1       3.542  -4.770   0.000  0.00  0.00    +0.000 C 
ENDBRANCH  46  52
ENDBRANCH  45  46
ENDBRANCH  40  45
ENDBRANCH  35  44
ENDBRANCH   4  35
TORSDOF 11
