REMARK  Name = 14887327
REMARK  5 active torsions:
REMARK  status: ('A' for Active; 'I' for Inactive)
REMARK    1  A    between atoms: O_2  and  C_11
REMARK    2  A    between atoms: O_3  and  C_13
REMARK    3  A    between atoms: O_4  and  C_16
REMARK    4  A    between atoms: O_7  and  C_18
REMARK    5  A    between atoms: C_10  and  C_14
REMARK                            x       y       z     vdW  Elec       q    Type
REMARK                         _______ _______ _______ _____ _____    ______ ____
ROOT
ATOM      1  O   UNL     1       5.278  -0.351   0.000  0.00  0.00    +0.000 OA
ATOM      2  O   UNL     1       3.836   2.153   0.000  0.00  0.00    +0.000 OA
ATOM      3  O   UNL     1       5.278   2.124   0.000  0.00  0.00    +0.000 OA
ATOM      4  C   UNL     1       4.564   0.886   0.000  0.00  0.00    +0.000 A 
ATOM      5  C   UNL     1       4.564   0.061   0.000  0.00  0.00    +0.000 A 
ATOM      6  C   UNL     1       5.993   0.061   0.000  0.00  0.00    +0.000 A 
ATOM      7  C   UNL     1       5.993   0.886   0.000  0.00  0.00    +0.000 A 
ATOM      8  C   UNL     1       5.278   1.299   0.000  0.00  0.00    +0.000 A 
ATOM      9  C   UNL     1       3.826  -0.380   0.000  0.00  0.00    +0.000 A 
ATOM     10  C   UNL     1       3.826   1.328   0.000  0.00  0.00    +0.000 A 
ATOM     11  C   UNL     1       3.079   0.044   0.000  0.00  0.00    +0.000 A 
ATOM     12  C   UNL     1       3.079   0.904   0.000  0.00  0.00    +0.000 A 
ENDROOT
BRANCH   6  13
ATOM     13  C   UNL     1       6.707  -0.351   0.000  0.00  0.00    +0.000 A 
ATOM     14  C   UNL     1       6.707  -1.176   0.000  0.00  0.00    +0.000 A 
ATOM     15  C   UNL     1       7.422   0.061   0.000  0.00  0.00    +0.000 A 
ATOM     16  C   UNL     1       7.422  -1.589   0.000  0.00  0.00    +0.000 A 
ATOM     17  C   UNL     1       8.136  -0.351   0.000  0.00  0.00    +0.000 A 
ATOM     18  C   UNL     1       8.136  -1.176   0.000  0.00  0.00    +0.000 A 
BRANCH  14  19
ATOM     19  O   UNL     1       5.993  -1.589   0.000  0.00  0.00    +0.000 OA
ATOM     20  C   UNL     1       5.993  -2.413   0.000  0.00  0.00    +0.000 C 
ENDBRANCH  14  19
ENDBRANCH   6  13
BRANCH   7  21
ATOM     21  O   UNL     1       6.707   1.299   0.000  0.00  0.00    +0.000 OA
ATOM     22  C   UNL     1       6.707   2.124   0.000  0.00  0.00    +0.000 C 
ENDBRANCH   7  21
BRANCH   9  23
ATOM     23  O   UNL     1       3.836  -1.204   0.000  0.00  0.00    +0.000 OA
ATOM     24  C   UNL     1       3.126  -1.625   0.000  0.00  0.00    +0.000 C 
ENDBRANCH   9  23
BRANCH  11  25
ATOM     25  O   UNL     1       2.366  -0.371   0.000  0.00  0.00    +0.000 OA
ATOM     26  C   UNL     1       1.650   0.039   0.000  0.00  0.00    +0.000 C 
ENDBRANCH  11  25
TORSDOF 5
