REMARK  Name = 44259584
REMARK  11 active torsions:
REMARK  status: ('A' for Active; 'I' for Inactive)
REMARK    1  A    between atoms: O_1  and  C_22
REMARK    2  A    between atoms: O_1  and  C_27
REMARK    3  A    between atoms: O_3  and  C_26
REMARK    4  A    between atoms: O_3  and  C_34
REMARK    5  A    between atoms: O_5  and  C_23
REMARK    6  A    between atoms: O_5  and  C_40
REMARK    7  A    between atoms: O_13  and  C_38
REMARK    8  A    between atoms: O_13  and  C_41
REMARK    9  A    between atoms: O_19  and  C_53
REMARK   10  A    between atoms: C_30  and  C_34
REMARK   11  A    between atoms: C_43  and  C_46
REMARK                            x       y       z     vdW  Elec       q    Type
REMARK                         _______ _______ _______ _____ _____    ______ ____
ROOT
ATOM      1  O   UNL     1       7.094   1.031   0.000  0.00  0.00    +0.000 OA
ATOM      2  O   UNL     1       7.809  -1.031   0.000  0.00  0.00    +0.000 OA
ATOM      3  O   UNL     1       9.238  -0.206   0.000  0.00  0.00    +0.000 OA
ATOM      4  O   UNL     1       9.238   1.444   0.000  0.00  0.00    +0.000 OA
ATOM      5  C   UNL     1       7.094   0.206   0.000  0.00  0.00    +0.000 C 
ATOM      6  C   UNL     1       7.809  -0.206   0.000  0.00  0.00    +0.000 C 
ATOM      7  C   UNL     1       8.523   0.206   0.000  0.00  0.00    +0.000 C 
ATOM      8  C   UNL     1       8.523   1.031   0.000  0.00  0.00    +0.000 C 
ATOM      9  C   UNL     1       7.809   1.444   0.000  0.00  0.00    +0.000 C 
ENDROOT
BRANCH   9  10
ATOM     10  O   UNL     1       7.809   2.269   0.000  0.00  0.00    +0.000 OA
BRANCH  10  14
ATOM     11  O   UNL     1       6.380   3.919   0.000  0.00  0.00    +0.000 OA
ATOM     12  O   UNL     1       6.380   1.444   0.000  0.00  0.00    +0.000 OA
ATOM     13  O   UNL     1       4.937   1.415   0.000  0.00  0.00    +0.000 OA
ATOM     14  C   UNL     1       7.094   2.681   0.000  0.00  0.00    +0.000 A 
ATOM     15  C   UNL     1       7.094   3.506   0.000  0.00  0.00    +0.000 A 
ATOM     16  C   UNL     1       6.380   2.269   0.000  0.00  0.00    +0.000 A 
ATOM     17  C   UNL     1       5.665   2.681   0.000  0.00  0.00    +0.000 A 
ATOM     18  C   UNL     1       5.665   3.506   0.000  0.00  0.00    +0.000 A 
ATOM     19  C   UNL     1       4.928   2.240   0.000  0.00  0.00    +0.000 A 
ATOM     20  C   UNL     1       4.928   3.947   0.000  0.00  0.00    +0.000 A 
ATOM     21  C   UNL     1       4.180   2.664   0.000  0.00  0.00    +0.000 A 
ATOM     22  C   UNL     1       4.180   3.523   0.000  0.00  0.00    +0.000 A 
BRANCH  15  25
ATOM     23  O   UNL     1       8.523   5.981   0.000  0.00  0.00    +0.000 OA
ATOM     24  O   UNL     1       9.952   5.156   0.000  0.00  0.00    +0.000 OA
ATOM     25  C   UNL     1       7.809   3.919   0.000  0.00  0.00    +0.000 A 
ATOM     26  C   UNL     1       7.809   4.744   0.000  0.00  0.00    +0.000 A 
ATOM     27  C   UNL     1       8.523   3.506   0.000  0.00  0.00    +0.000 A 
ATOM     28  C   UNL     1       8.523   5.156   0.000  0.00  0.00    +0.000 A 
ATOM     29  C   UNL     1       9.238   3.919   0.000  0.00  0.00    +0.000 A 
ATOM     30  C   UNL     1       9.238   4.744   0.000  0.00  0.00    +0.000 A 
ENDBRANCH  15  25
BRANCH  22  31
ATOM     31  O   UNL     1       3.467   3.939   0.000  0.00  0.00    +0.000 OA
ATOM     32  C   UNL     1       2.751   3.529   0.000  0.00  0.00    +0.000 C 
ENDBRANCH  22  31
ENDBRANCH  10  14
ENDBRANCH   9  10
BRANCH   5  33
ATOM     33  C   UNL     1       6.380  -0.206   0.000  0.00  0.00    +0.000 C 
BRANCH  33  34
ATOM     34  O   UNL     1       6.380  -1.031   0.000  0.00  0.00    +0.000 OA
BRANCH  34  41
ATOM     35  O   UNL     1       4.951  -1.031   0.000  0.00  0.00    +0.000 OA
ATOM     36  O   UNL     1       6.380  -2.681   0.000  0.00  0.00    +0.000 OA
ATOM     37  C   UNL     1       4.951  -2.681   0.000  0.00  0.00    +0.000 C 
ATOM     38  C   UNL     1       4.236  -2.269   0.000  0.00  0.00    +0.000 C 
ATOM     39  C   UNL     1       5.665  -2.269   0.000  0.00  0.00    +0.000 C 
ATOM     40  C   UNL     1       4.236  -1.444   0.000  0.00  0.00    +0.000 C 
ATOM     41  C   UNL     1       5.665  -1.444   0.000  0.00  0.00    +0.000 C 
ATOM     42  C   UNL     1       3.522  -1.031   0.000  0.00  0.00    +0.000 C 
BRANCH  37  43
ATOM     43  O   UNL     1       4.951  -3.506   0.000  0.00  0.00    +0.000 OA
BRANCH  43  48
ATOM     44  O   UNL     1       3.522  -3.506   0.000  0.00  0.00    +0.000 OA
ATOM     45  O   UNL     1       4.951  -5.156   0.000  0.00  0.00    +0.000 OA
ATOM     46  O   UNL     1       3.522  -5.981   0.000  0.00  0.00    +0.000 OA
ATOM     47  O   UNL     1       2.093  -5.156   0.000  0.00  0.00    +0.000 OA
ATOM     48  C   UNL     1       4.236  -3.919   0.000  0.00  0.00    +0.000 C 
ATOM     49  C   UNL     1       4.236  -4.744   0.000  0.00  0.00    +0.000 C 
ATOM     50  C   UNL     1       3.522  -5.156   0.000  0.00  0.00    +0.000 C 
ATOM     51  C   UNL     1       2.808  -4.744   0.000  0.00  0.00    +0.000 C 
ATOM     52  C   UNL     1       2.808  -3.919   0.000  0.00  0.00    +0.000 C 
ATOM     53  C   UNL     1       2.093  -3.506   0.000  0.00  0.00    +0.000 C 
ENDBRANCH  43  48
ENDBRANCH  37  43
BRANCH  38  54
ATOM     54  O   UNL     1       3.522  -2.681   0.000  0.00  0.00    +0.000 OA
BRANCH  54  56
ATOM     55  O   UNL     1       2.808  -1.444   0.000  0.00  0.00    +0.000 OA
ATOM     56  C   UNL     1       2.808  -2.269   0.000  0.00  0.00    +0.000 C 
ATOM     57  C   UNL     1       2.093  -2.681   0.000  0.00  0.00    +0.000 C 
ENDBRANCH  54  56
ENDBRANCH  38  54
ENDBRANCH  34  41
ENDBRANCH  33  34
ENDBRANCH   5  33
TORSDOF 11
