REMARK  Name = 75072286
REMARK  10 active torsions:
REMARK  status: ('A' for Active; 'I' for Inactive)
REMARK    1  A    between atoms: O_3  and  C_31
REMARK    2  A    between atoms: O_4  and  C_32
REMARK    3  A    between atoms: O_7  and  C_37
REMARK    4  A    between atoms: O_8  and  C_38
REMARK    5  A    between atoms: O_9  and  C_39
REMARK    6  A    between atoms: O_10  and  C_41
REMARK    7  A    between atoms: O_11  and  C_42
REMARK    8  A    between atoms: C_19  and  C_25
REMARK    9  A    between atoms: C_20  and  C_21
REMARK   10  A    between atoms: C_22  and  C_28
REMARK                            x       y       z     vdW  Elec       q    Type
REMARK                         _______ _______ _______ _____ _____    ______ ____
ROOT
ATOM      1  O   UNL     1       8.162  -2.013   0.000  0.00  0.00    +0.000 OA
ATOM      2  O   UNL     1       6.710  -2.810   0.000  0.00  0.00    +0.000 OA
ATOM      3  C   UNL     1       7.425  -0.747   0.000  0.00  0.00    +0.000 A 
ATOM      4  C   UNL     1       8.162  -0.306   0.000  0.00  0.00    +0.000 C 
ATOM      5  C   UNL     1       8.910  -0.730   0.000  0.00  0.00    +0.000 C 
ATOM      6  C   UNL     1       8.910  -1.589   0.000  0.00  0.00    +0.000 C 
ATOM      7  C   UNL     1       6.710  -0.335   0.000  0.00  0.00    +0.000 A 
ATOM      8  C   UNL     1       7.425  -1.572   0.000  0.00  0.00    +0.000 A 
ATOM      9  C   UNL     1       5.996  -0.747   0.000  0.00  0.00    +0.000 A 
ATOM     10  C   UNL     1       6.710  -1.985   0.000  0.00  0.00    +0.000 A 
ATOM     11  C   UNL     1       5.996  -1.572   0.000  0.00  0.00    +0.000 A 
ENDROOT
BRANCH   7  17
ATOM     12  O   UNL     1       5.258   2.169   0.000  0.00  0.00    +0.000 OA
ATOM     13  O   UNL     1       6.710   2.965   0.000  0.00  0.00    +0.000 OA
ATOM     14  C   UNL     1       5.996   0.903   0.000  0.00  0.00    +0.000 A 
ATOM     15  C   UNL     1       5.258   0.462   0.000  0.00  0.00    +0.000 C 
ATOM     16  C   UNL     1       4.511   0.886   0.000  0.00  0.00    +0.000 C 
ATOM     17  C   UNL     1       6.710   0.490   0.000  0.00  0.00    +0.000 A 
ATOM     18  C   UNL     1       4.511   1.745   0.000  0.00  0.00    +0.000 C 
ATOM     19  C   UNL     1       5.996   1.728   0.000  0.00  0.00    +0.000 A 
ATOM     20  C   UNL     1       7.425   0.903   0.000  0.00  0.00    +0.000 A 
ATOM     21  C   UNL     1       6.710   2.140   0.000  0.00  0.00    +0.000 A 
ATOM     22  C   UNL     1       7.425   1.728   0.000  0.00  0.00    +0.000 A 
BRANCH  18  24
ATOM     23  O   UNL     1       3.092   4.226   0.000  0.00  0.00    +0.000 OA
ATOM     24  C   UNL     1       3.798   2.160   0.000  0.00  0.00    +0.000 A 
ATOM     25  C   UNL     1       3.082   1.751   0.000  0.00  0.00    +0.000 A 
ATOM     26  C   UNL     1       3.801   2.985   0.000  0.00  0.00    +0.000 A 
ATOM     27  C   UNL     1       2.369   2.166   0.000  0.00  0.00    +0.000 A 
ATOM     28  C   UNL     1       3.088   3.401   0.000  0.00  0.00    +0.000 A 
ATOM     29  C   UNL     1       2.372   2.991   0.000  0.00  0.00    +0.000 A 
BRANCH  27  30
ATOM     30  O   UNL     1       1.653   1.756   0.000  0.00  0.00    +0.000 OA
ATOM     31  C   UNL     1       1.650   0.931   0.000  0.00  0.00    +0.000 C 
ENDBRANCH  27  30
BRANCH  29  32
ATOM     32  O   UNL     1       1.660   3.406   0.000  0.00  0.00    +0.000 OA
ATOM     33  C   UNL     1       1.663   4.231   0.000  0.00  0.00    +0.000 C 
ENDBRANCH  29  32
ENDBRANCH  18  24
BRANCH  22  34
ATOM     34  O   UNL     1       8.139   2.140   0.000  0.00  0.00    +0.000 OA
ATOM     35  C   UNL     1       8.854   1.728   0.000  0.00  0.00    +0.000 C 
ENDBRANCH  22  34
ENDBRANCH   7  17
BRANCH   6  36
ATOM     36  C   UNL     1       9.623  -2.005   0.000  0.00  0.00    +0.000 A 
ATOM     37  C   UNL     1       9.620  -2.830   0.000  0.00  0.00    +0.000 A 
ATOM     38  C   UNL     1      10.339  -1.595   0.000  0.00  0.00    +0.000 A 
ATOM     39  C   UNL     1      11.052  -2.010   0.000  0.00  0.00    +0.000 A 
ATOM     40  C   UNL     1      10.332  -3.245   0.000  0.00  0.00    +0.000 A 
ATOM     41  C   UNL     1      11.049  -2.835   0.000  0.00  0.00    +0.000 A 
BRANCH  39  42
ATOM     42  O   UNL     1      11.768  -1.600   0.000  0.00  0.00    +0.000 OA
ATOM     43  C   UNL     1      11.771  -0.775   0.000  0.00  0.00    +0.000 C 
ENDBRANCH  39  42
BRANCH  40  44
ATOM     44  O   UNL     1      10.329  -4.070   0.000  0.00  0.00    +0.000 OA
ATOM     45  C   UNL     1       9.613  -4.480   0.000  0.00  0.00    +0.000 C 
ENDBRANCH  40  44
BRANCH  41  46
ATOM     46  O   UNL     1      11.761  -3.250   0.000  0.00  0.00    +0.000 OA
ATOM     47  C   UNL     1      12.477  -2.841   0.000  0.00  0.00    +0.000 C 
ENDBRANCH  41  46
ENDBRANCH   6  36
BRANCH  11  48
ATOM     48  O   UNL     1       5.282  -1.985   0.000  0.00  0.00    +0.000 OA
ATOM     49  C   UNL     1       4.567  -1.572   0.000  0.00  0.00    +0.000 C 
ENDBRANCH  11  48
TORSDOF 10
