REMARK  Name = 73107181
REMARK  5 active torsions:
REMARK  status: ('A' for Active; 'I' for Inactive)
REMARK    1  A    between atoms: S_1  and  O_10
REMARK    2  A    between atoms: O_3  and  C_20
REMARK    3  A    between atoms: O_3  and  C_22
REMARK    4  A    between atoms: O_10  and  C_34
REMARK    5  A    between atoms: C_23  and  C_27
REMARK                            x       y       z     vdW  Elec       q    Type
REMARK                         _______ _______ _______ _____ _____    ______ ____
ROOT
ATOM      1  O   UNL     1       5.665   1.002   0.000  0.00  0.00    +0.000 OA
ATOM      2  O   UNL     1       3.522  -0.236   0.000  0.00  0.00    +0.000 OA
ATOM      3  O   UNL     1       2.776   0.999   0.000  0.00  0.00    +0.000 OA
ATOM      4  O   UNL     1       4.226   3.534   0.000  0.00  0.00    +0.000 OA
ATOM      5  C   UNL     1       4.951  -0.236   0.000  0.00  0.00    +0.000 A 
ATOM      6  C   UNL     1       5.665   0.177   0.000  0.00  0.00    +0.000 A 
ATOM      7  C   UNL     1       4.236   0.177   0.000  0.00  0.00    +0.000 A 
ATOM      8  C   UNL     1       4.236   1.002   0.000  0.00  0.00    +0.000 A 
ATOM      9  C   UNL     1       4.951   1.414   0.000  0.00  0.00    +0.000 A 
ATOM     10  C   UNL     1       3.486   1.420   0.000  0.00  0.00    +0.000 A 
ATOM     11  C   UNL     1       4.964   2.273   0.000  0.00  0.00    +0.000 A 
ATOM     12  C   UNL     1       3.479   2.279   0.000  0.00  0.00    +0.000 A 
ATOM     13  C   UNL     1       4.223   2.709   0.000  0.00  0.00    +0.000 A 
ENDROOT
BRANCH   6  15
ATOM     14  O   UNL     1       8.523  -1.473   0.000  0.00  0.00    +0.000 OA
ATOM     15  C   UNL     1       6.380  -0.236   0.000  0.00  0.00    +0.000 A 
ATOM     16  C   UNL     1       7.094   0.177   0.000  0.00  0.00    +0.000 A 
ATOM     17  C   UNL     1       6.380  -1.061   0.000  0.00  0.00    +0.000 A 
ATOM     18  C   UNL     1       7.809  -0.236   0.000  0.00  0.00    +0.000 A 
ATOM     19  C   UNL     1       7.094  -1.473   0.000  0.00  0.00    +0.000 A 
ATOM     20  C   UNL     1       7.809  -1.061   0.000  0.00  0.00    +0.000 A 
BRANCH  18  21
ATOM     21  O   UNL     1       8.523   0.177   0.000  0.00  0.00    +0.000 OA
BRANCH  21  22
ATOM     22  S   UNL     1       8.523   1.002   0.000  0.00  0.00    +0.000 S 
ATOM     23  O   UNL     1       8.523   1.827   0.000  0.00  0.00    +0.000 OA
ATOM     24  O   UNL     1       9.348   1.002   0.000  0.00  0.00    +0.000 OA
ATOM     25  O   UNL     1       7.698   1.002   0.000  0.00  0.00    +0.000 OA
ENDBRANCH  21  22
ENDBRANCH  18  21
ENDBRANCH   6  15
BRANCH   5  26
ATOM     26  O   UNL     1       4.951  -1.061   0.000  0.00  0.00    +0.000 OA
BRANCH  26  35
ATOM     27  O   UNL     1       3.522  -1.061   0.000  0.00  0.00    +0.000 OA
ATOM     28  O   UNL     1       3.522  -3.536   0.000  0.00  0.00    +0.000 OA
ATOM     29  O   UNL     1       2.093  -2.711   0.000  0.00  0.00    +0.000 OA
ATOM     30  O   UNL     1       4.951  -2.711   0.000  0.00  0.00    +0.000 OA
ATOM     31  C   UNL     1       3.522  -2.711   0.000  0.00  0.00    +0.000 C 
ATOM     32  C   UNL     1       2.808  -2.298   0.000  0.00  0.00    +0.000 C 
ATOM     33  C   UNL     1       4.236  -2.298   0.000  0.00  0.00    +0.000 C 
ATOM     34  C   UNL     1       2.808  -1.473   0.000  0.00  0.00    +0.000 C 
ATOM     35  C   UNL     1       4.236  -1.473   0.000  0.00  0.00    +0.000 C 
ATOM     36  C   UNL     1       2.093  -1.061   0.000  0.00  0.00    +0.000 C 
ENDBRANCH  26  35
ENDBRANCH   5  26
TORSDOF 5
