REMARK  Name = 44257737
REMARK  9 active torsions:
REMARK  status: ('A' for Active; 'I' for Inactive)
REMARK    1  A    between atoms: O_1  and  C_17
REMARK    2  A    between atoms: O_1  and  C_21
REMARK    3  A    between atoms: O_6  and  C_24
REMARK    4  A    between atoms: O_6  and  C_35
REMARK    5  A    between atoms: O_7  and  C_25
REMARK    6  A    between atoms: O_7  and  C_36
REMARK    7  A    between atoms: C_19  and  C_27
REMARK    8  A    between atoms: C_22  and  C_28
REMARK    9  A    between atoms: C_38  and  C_42
REMARK                            x       y       z     vdW  Elec       q    Type
REMARK                         _______ _______ _______ _____ _____    ______ ____
ROOT
ATOM      1  O   UNL     1       6.651   0.874   0.000  0.00  0.00    +0.000 OA
ATOM      2  O   UNL     1       4.508  -0.363   0.000  0.00  0.00    +0.000 OA
ATOM      3  O   UNL     1       4.508   1.286   0.000  0.00  0.00    +0.000 OA
ATOM      4  C   UNL     1       5.937  -0.363   0.000  0.00  0.00    +0.000 C 
ATOM      5  C   UNL     1       5.222   0.049   0.000  0.00  0.00    +0.000 C 
ATOM      6  C   UNL     1       6.651   0.049   0.000  0.00  0.00    +0.000 C 
ATOM      7  C   UNL     1       5.222   0.874   0.000  0.00  0.00    +0.000 C 
ATOM      8  C   UNL     1       5.937   1.286   0.000  0.00  0.00    +0.000 C 
ENDROOT
BRANCH   6  13
ATOM      9  O   UNL     1       8.067   0.908   0.000  0.00  0.00    +0.000 OA
ATOM     10  O   UNL     1       6.651  -1.601   0.000  0.00  0.00    +0.000 OA
ATOM     11  O   UNL     1       9.509  -1.601   0.000  0.00  0.00    +0.000 OA
ATOM     12  O   UNL     1      10.255  -0.366   0.000  0.00  0.00    +0.000 OA
ATOM     13  C   UNL     1       7.366  -0.363   0.000  0.00  0.00    +0.000 A 
ATOM     14  C   UNL     1       8.080   0.049   0.000  0.00  0.00    +0.000 A 
ATOM     15  C   UNL     1       7.366  -1.188   0.000  0.00  0.00    +0.000 A 
ATOM     16  C   UNL     1       8.795  -0.363   0.000  0.00  0.00    +0.000 A 
ATOM     17  C   UNL     1       8.080  -1.601   0.000  0.00  0.00    +0.000 A 
ATOM     18  C   UNL     1       8.795  -1.188   0.000  0.00  0.00    +0.000 A 
ATOM     19  C   UNL     1       9.546   0.055   0.000  0.00  0.00    +0.000 A 
ATOM     20  C   UNL     1       8.808   1.344   0.000  0.00  0.00    +0.000 A 
ATOM     21  C   UNL     1       9.552   0.914   0.000  0.00  0.00    +0.000 A 
BRANCH  20  23
ATOM     22  O   UNL     1       8.795   4.644   0.000  0.00  0.00    +0.000 OA
ATOM     23  C   UNL     1       8.805   2.169   0.000  0.00  0.00    +0.000 A 
ATOM     24  C   UNL     1       9.518   2.584   0.000  0.00  0.00    +0.000 A 
ATOM     25  C   UNL     1       8.089   2.578   0.000  0.00  0.00    +0.000 A 
ATOM     26  C   UNL     1       9.514   3.409   0.000  0.00  0.00    +0.000 A 
ATOM     27  C   UNL     1       8.085   3.403   0.000  0.00  0.00    +0.000 A 
ATOM     28  C   UNL     1       8.798   3.819   0.000  0.00  0.00    +0.000 A 
ENDBRANCH  20  23
ENDBRANCH   6  13
BRANCH   8  30
ATOM     29  O   UNL     1       5.222   2.524   0.000  0.00  0.00    +0.000 OA
ATOM     30  C   UNL     1       5.937   2.111   0.000  0.00  0.00    +0.000 C 
ENDBRANCH   8  30
BRANCH   4  31
ATOM     31  O   UNL     1       5.937  -1.188   0.000  0.00  0.00    +0.000 OA
BRANCH  31  34
ATOM     32  O   UNL     1       4.508  -1.188   0.000  0.00  0.00    +0.000 OA
ATOM     33  O   UNL     1       5.937  -2.838   0.000  0.00  0.00    +0.000 OA
ATOM     34  C   UNL     1       5.222  -1.601   0.000  0.00  0.00    +0.000 C 
ATOM     35  C   UNL     1       5.222  -2.426   0.000  0.00  0.00    +0.000 C 
ATOM     36  C   UNL     1       4.508  -2.838   0.000  0.00  0.00    +0.000 C 
ATOM     37  C   UNL     1       3.793  -2.426   0.000  0.00  0.00    +0.000 C 
ATOM     38  C   UNL     1       3.793  -1.601   0.000  0.00  0.00    +0.000 C 
ATOM     39  C   UNL     1       3.079  -1.188   0.000  0.00  0.00    +0.000 C 
BRANCH  36  40
ATOM     40  O   UNL     1       4.508  -3.663   0.000  0.00  0.00    +0.000 OA
BRANCH  40  42
ATOM     41  O   UNL     1       3.079  -3.663   0.000  0.00  0.00    +0.000 OA
ATOM     42  C   UNL     1       3.793  -4.076   0.000  0.00  0.00    +0.000 C 
ATOM     43  C   UNL     1       3.793  -4.901   0.000  0.00  0.00    +0.000 C 
ENDBRANCH  40  42
ENDBRANCH  36  40
BRANCH  37  44
ATOM     44  O   UNL     1       3.079  -2.838   0.000  0.00  0.00    +0.000 OA
BRANCH  44  46
ATOM     45  O   UNL     1       2.364  -1.601   0.000  0.00  0.00    +0.000 OA
ATOM     46  C   UNL     1       2.364  -2.426   0.000  0.00  0.00    +0.000 C 
ATOM     47  C   UNL     1       1.650  -2.838   0.000  0.00  0.00    +0.000 C 
ENDBRANCH  44  46
ENDBRANCH  37  44
ENDBRANCH  31  34
ENDBRANCH   4  31
TORSDOF 9
