REMARK  Name = 74977681
REMARK  15 active torsions:
REMARK  status: ('A' for Active; 'I' for Inactive)
REMARK    1  A    between atoms: O_1  and  C_28
REMARK    2  A    between atoms: O_1  and  C_30
REMARK    3  A    between atoms: O_4  and  C_31
REMARK    4  A    between atoms: O_4  and  C_46
REMARK    5  A    between atoms: O_6  and  C_34
REMARK    6  A    between atoms: O_6  and  C_43
REMARK    7  A    between atoms: O_15  and  C_45
REMARK    8  A    between atoms: O_15  and  C_54
REMARK    9  A    between atoms: O_26  and  C_67
REMARK   10  A    between atoms: C_36  and  C_38
REMARK   11  A    between atoms: C_37  and  C_39
REMARK   12  A    between atoms: C_44  and  C_49
REMARK   13  A    between atoms: C_46  and  C_51
REMARK   14  A    between atoms: C_56  and  C_58
REMARK   15  A    between atoms: C_57  and  C_64
REMARK                            x       y       z     vdW  Elec       q    Type
REMARK                         _______ _______ _______ _____ _____    ______ ____
ROOT
ATOM      1  O   UNL     1       4.236  -1.671   0.000  0.00  0.00    +0.000 OA
ATOM      2  O   UNL     1       4.236  -4.146   0.000  0.00  0.00    +0.000 OA
ATOM      3  O   UNL     1       2.808  -3.321   0.000  0.00  0.00    +0.000 OA
ATOM      4  C   UNL     1       4.951  -2.909   0.000  0.00  0.00    +0.000 C 
ATOM      5  C   UNL     1       4.236  -3.321   0.000  0.00  0.00    +0.000 C 
ATOM      6  C   UNL     1       3.522  -2.909   0.000  0.00  0.00    +0.000 C 
ATOM      7  C   UNL     1       4.951  -2.084   0.000  0.00  0.00    +0.000 C 
ATOM      8  C   UNL     1       3.522  -2.084   0.000  0.00  0.00    +0.000 C 
ENDROOT
BRANCH   8  11
ATOM      9  O   UNL     1       2.093  -2.084   0.000  0.00  0.00    +0.000 OA
ATOM     10  O   UNL     1       2.808  -0.846   0.000  0.00  0.00    +0.000 OA
ATOM     11  C   UNL     1       2.808  -1.671   0.000  0.00  0.00    +0.000 C 
ENDBRANCH   8  11
BRANCH   4  12
ATOM     12  O   UNL     1       5.665  -3.321   0.000  0.00  0.00    +0.000 OA
BRANCH  12  16
ATOM     13  O   UNL     1       4.951  -4.559   0.000  0.00  0.00    +0.000 OA
ATOM     14  O   UNL     1       7.094  -5.796   0.000  0.00  0.00    +0.000 OA
ATOM     15  O   UNL     1       5.665  -6.621   0.000  0.00  0.00    +0.000 OA
ATOM     16  C   UNL     1       5.665  -4.146   0.000  0.00  0.00    +0.000 C 
ATOM     17  C   UNL     1       6.380  -4.559   0.000  0.00  0.00    +0.000 C 
ATOM     18  C   UNL     1       6.380  -5.384   0.000  0.00  0.00    +0.000 C 
ATOM     19  C   UNL     1       5.665  -5.796   0.000  0.00  0.00    +0.000 C 
ATOM     20  C   UNL     1       4.951  -5.384   0.000  0.00  0.00    +0.000 C 
BRANCH  20  23
ATOM     21  O   UNL     1       4.236  -6.621   0.000  0.00  0.00    +0.000 OA
ATOM     22  O   UNL     1       3.522  -5.384   0.000  0.00  0.00    +0.000 OA
ATOM     23  C   UNL     1       4.236  -5.796   0.000  0.00  0.00    +0.000 C 
ENDBRANCH  20  23
BRANCH  17  24
ATOM     24  O   UNL     1       7.094  -4.146   0.000  0.00  0.00    +0.000 OA
BRANCH  24  26
ATOM     25  O   UNL     1       7.809  -5.384   0.000  0.00  0.00    +0.000 OA
ATOM     26  C   UNL     1       7.809  -4.559   0.000  0.00  0.00    +0.000 C 
BRANCH  26  27
ATOM     27  C   UNL     1       8.523  -4.146   0.000  0.00  0.00    +0.000 C 
ATOM     28  C   UNL     1       9.238  -4.559   0.000  0.00  0.00    +0.000 C 
BRANCH  28  30
ATOM     29  O   UNL     1      12.096  -2.909   0.000  0.00  0.00    +0.000 OA
ATOM     30  C   UNL     1       9.952  -4.146   0.000  0.00  0.00    +0.000 A 
ATOM     31  C   UNL     1       9.952  -3.321   0.000  0.00  0.00    +0.000 A 
ATOM     32  C   UNL     1      10.667  -4.559   0.000  0.00  0.00    +0.000 A 
ATOM     33  C   UNL     1      10.667  -2.909   0.000  0.00  0.00    +0.000 A 
ATOM     34  C   UNL     1      11.381  -4.146   0.000  0.00  0.00    +0.000 A 
ATOM     35  C   UNL     1      11.381  -3.321   0.000  0.00  0.00    +0.000 A 
BRANCH  33  36
ATOM     36  O   UNL     1      10.667  -2.084   0.000  0.00  0.00    +0.000 OA
ATOM     37  C   UNL     1      11.381  -1.671   0.000  0.00  0.00    +0.000 C 
ENDBRANCH  33  36
ENDBRANCH  28  30
ENDBRANCH  26  27
ENDBRANCH  24  26
ENDBRANCH  17  24
ENDBRANCH  12  16
ENDBRANCH   4  12
BRANCH   7  38
ATOM     38  O   UNL     1       5.665  -1.671   0.000  0.00  0.00    +0.000 OA
BRANCH  38  42
ATOM     39  O   UNL     1       7.114   0.855   0.000  0.00  0.00    +0.000 OA
ATOM     40  O   UNL     1       4.225   0.869   0.000  0.00  0.00    +0.000 OA
ATOM     41  O   UNL     1       4.975   2.101   0.000  0.00  0.00    +0.000 OA
ATOM     42  C   UNL     1       5.665  -0.846   0.000  0.00  0.00    +0.000 A 
ATOM     43  C   UNL     1       6.408  -0.414   0.000  0.00  0.00    +0.000 A 
ATOM     44  C   UNL     1       4.923  -0.414   0.000  0.00  0.00    +0.000 A 
ATOM     45  C   UNL     1       6.398   0.446   0.000  0.00  0.00    +0.000 A 
ATOM     46  C   UNL     1       4.933   0.446   0.000  0.00  0.00    +0.000 A 
ATOM     47  C   UNL     1       5.685   0.861   0.000  0.00  0.00    +0.000 A 
ATOM     48  C   UNL     1       5.688   1.686   0.000  0.00  0.00    +0.000 A 
ATOM     49  C   UNL     1       7.117   1.680   0.000  0.00  0.00    +0.000 A 
ATOM     50  C   UNL     1       6.404   2.096   0.000  0.00  0.00    +0.000 A 
BRANCH  49  53
ATOM     51  O   UNL     1       9.975   1.669   0.000  0.00  0.00    +0.000 OA
ATOM     52  C   UNL     1       9.265   2.910   0.000  0.00  0.00    +0.000 A 
ATOM     53  C   UNL     1       7.833   2.090   0.000  0.00  0.00    +0.000 A 
ATOM     54  C   UNL     1       9.262   2.085   0.000  0.00  0.00    +0.000 A 
ATOM     55  C   UNL     1       8.552   3.325   0.000  0.00  0.00    +0.000 A 
ATOM     56  C   UNL     1       8.546   1.675   0.000  0.00  0.00    +0.000 A 
ATOM     57  C   UNL     1       7.836   2.915   0.000  0.00  0.00    +0.000 A 
BRANCH  52  58
ATOM     58  O   UNL     1       9.981   3.320   0.000  0.00  0.00    +0.000 OA
BRANCH  58  67
ATOM     59  O   UNL     1      10.701   4.554   0.000  0.00  0.00    +0.000 OA
ATOM     60  O   UNL     1       8.562   5.800   0.000  0.00  0.00    +0.000 OA
ATOM     61  O   UNL     1       9.994   6.619   0.000  0.00  0.00    +0.000 OA
ATOM     62  O   UNL     1       8.556   4.150   0.000  0.00  0.00    +0.000 OA
ATOM     63  C   UNL     1       9.275   5.385   0.000  0.00  0.00    +0.000 C 
ATOM     64  C   UNL     1       9.991   5.794   0.000  0.00  0.00    +0.000 C 
ATOM     65  C   UNL     1       9.272   4.560   0.000  0.00  0.00    +0.000 C 
ATOM     66  C   UNL     1      10.704   5.379   0.000  0.00  0.00    +0.000 C 
ATOM     67  C   UNL     1       9.985   4.144   0.000  0.00  0.00    +0.000 C 
BRANCH  66  70
ATOM     68  O   UNL     1      12.133   5.374   0.000  0.00  0.00    +0.000 OA
ATOM     69  O   UNL     1      11.423   6.614   0.000  0.00  0.00    +0.000 OA
ATOM     70  C   UNL     1      11.420   5.789   0.000  0.00  0.00    +0.000 C 
ENDBRANCH  66  70
ENDBRANCH  58  67
ENDBRANCH  52  58
ENDBRANCH  49  53
ENDBRANCH  38  42
ENDBRANCH   7  38
TORSDOF 15
