REMARK  Name = 131837145
REMARK  11 active torsions:
REMARK  status: ('A' for Active; 'I' for Inactive)
REMARK    1  A    between atoms: O_2  and  C_15
REMARK    2  A    between atoms: O_2  and  C_18
REMARK    3  A    between atoms: C_16  and  C_17
REMARK    4  A    between atoms: C_19  and  C_23
REMARK    5  A    between atoms: C_22  and  C_26
REMARK    6  A    between atoms: C_23  and  C_28
REMARK    7  A    between atoms: C_25  and  C_26
REMARK    8  A    between atoms: C_25  and  C_27
REMARK    9  A    between atoms: C_27  and  C_29
REMARK   10  A    between atoms: C_32  and  C_34
REMARK   11  A    between atoms: C_34  and  C_39
REMARK                            x       y       z     vdW  Elec       q    Type
REMARK                         _______ _______ _______ _____ _____    ______ ____
ROOT
ATOM      1  O   UNL     1       4.236   0.491   0.000  0.00  0.00    +0.000 OA
ATOM      2  C   UNL     1       5.665  -1.159   0.000  0.00  0.00    +0.000 A 
ATOM      3  C   UNL     1       6.380  -0.747   0.000  0.00  0.00    +0.000 A 
ATOM      4  C   UNL     1       4.951  -0.747   0.000  0.00  0.00    +0.000 A 
ATOM      5  C   UNL     1       6.380   0.078   0.000  0.00  0.00    +0.000 A 
ATOM      6  C   UNL     1       5.665   0.491   0.000  0.00  0.00    +0.000 A 
ATOM      7  C   UNL     1       4.951   0.078   0.000  0.00  0.00    +0.000 A 
ENDROOT
BRANCH   6   9
ATOM      8  O   UNL     1       4.951   1.728   0.000  0.00  0.00    +0.000 OA
ATOM      9  C   UNL     1       5.665   1.316   0.000  0.00  0.00    +0.000 C 
BRANCH   9  11
ATOM     10  O   UNL     1       7.094   1.316   0.000  0.00  0.00    +0.000 OA
ATOM     11  C   UNL     1       6.380   1.728   0.000  0.00  0.00    +0.000 C 
BRANCH  11  12
ATOM     12  C   UNL     1       6.380   2.553   0.000  0.00  0.00    +0.000 C 
BRANCH  12  14
ATOM     13  O   UNL     1       9.238   4.203   0.000  0.00  0.00    +0.000 OA
ATOM     14  C   UNL     1       7.094   2.966   0.000  0.00  0.00    +0.000 A 
ATOM     15  C   UNL     1       7.809   2.553   0.000  0.00  0.00    +0.000 A 
ATOM     16  C   UNL     1       8.523   2.966   0.000  0.00  0.00    +0.000 A 
ATOM     17  C   UNL     1       7.094   3.791   0.000  0.00  0.00    +0.000 A 
ATOM     18  C   UNL     1       8.523   3.791   0.000  0.00  0.00    +0.000 A 
ATOM     19  C   UNL     1       7.809   4.203   0.000  0.00  0.00    +0.000 A 
BRANCH  16  20
ATOM     20  C   UNL     1       9.238   2.553   0.000  0.00  0.00    +0.000 C 
BRANCH  20  21
ATOM     21  C   UNL     1       9.952   2.966   0.000  0.00  0.00    +0.000 C 
ATOM     22  C   UNL     1      10.667   2.553   0.000  0.00  0.00    +0.000 C 
ATOM     23  C   UNL     1      11.381   2.966   0.000  0.00  0.00    +0.000 C 
ATOM     24  C   UNL     1      10.667   1.728   0.000  0.00  0.00    +0.000 C 
ENDBRANCH  20  21
ENDBRANCH  16  20
ENDBRANCH  12  14
ENDBRANCH  11  12
ENDBRANCH   9  11
ENDBRANCH   6   9
BRANCH   2  25
ATOM     25  O   UNL     1       5.665  -1.984   0.000  0.00  0.00    +0.000 OA
BRANCH  25  33
ATOM     26  O   UNL     1       4.236  -1.984   0.000  0.00  0.00    +0.000 OA
ATOM     27  O   UNL     1       4.236  -4.459   0.000  0.00  0.00    +0.000 OA
ATOM     28  O   UNL     1       5.665  -3.634   0.000  0.00  0.00    +0.000 OA
ATOM     29  O   UNL     1       2.808  -3.634   0.000  0.00  0.00    +0.000 OA
ATOM     30  C   UNL     1       4.236  -3.634   0.000  0.00  0.00    +0.000 C 
ATOM     31  C   UNL     1       4.951  -3.222   0.000  0.00  0.00    +0.000 C 
ATOM     32  C   UNL     1       3.522  -3.222   0.000  0.00  0.00    +0.000 C 
ATOM     33  C   UNL     1       4.951  -2.397   0.000  0.00  0.00    +0.000 C 
ATOM     34  C   UNL     1       3.522  -2.397   0.000  0.00  0.00    +0.000 C 
BRANCH  34  37
ATOM     35  O   UNL     1       2.093  -2.397   0.000  0.00  0.00    +0.000 OA
ATOM     36  O   UNL     1       2.808  -1.159   0.000  0.00  0.00    +0.000 OA
ATOM     37  C   UNL     1       2.808  -1.984   0.000  0.00  0.00    +0.000 C 
ENDBRANCH  34  37
ENDBRANCH  25  33
ENDBRANCH   2  25
BRANCH   3  38
ATOM     38  C   UNL     1       7.094  -1.159   0.000  0.00  0.00    +0.000 C 
BRANCH  38  39
ATOM     39  C   UNL     1       7.809  -0.747   0.000  0.00  0.00    +0.000 C 
ATOM     40  C   UNL     1       8.523  -1.159   0.000  0.00  0.00    +0.000 C 
ATOM     41  C   UNL     1       9.238  -0.747   0.000  0.00  0.00    +0.000 C 
ATOM     42  C   UNL     1       8.523  -1.984   0.000  0.00  0.00    +0.000 C 
ENDBRANCH  38  39
ENDBRANCH   3  38
TORSDOF 11
