REMARK  Name = 13831736
REMARK  4 active torsions:
REMARK  status: ('A' for Active; 'I' for Inactive)
REMARK    1  A    between atoms: S_1  and  O_3
REMARK    2  A    between atoms: O_3  and  C_18
REMARK    3  A    between atoms: O_4  and  C_16
REMARK    4  A    between atoms: C_14  and  C_20
REMARK                            x       y       z     vdW  Elec       q    Type
REMARK                         _______ _______ _______ _____ _____    ______ ____
ROOT
ATOM      1  O   UNL     1       5.356  -0.441   0.000  0.00  0.00    +0.000 OA
ATOM      2  O   UNL     1       3.904   2.062   0.000  0.00  0.00    +0.000 OA
ATOM      3  O   UNL     1       5.346   2.091   0.000  0.00  0.00    +0.000 OA
ATOM      4  C   UNL     1       4.618   0.825   0.000  0.00  0.00    +0.000 A 
ATOM      5  C   UNL     1       4.618   0.000   0.000  0.00  0.00    +0.000 A 
ATOM      6  C   UNL     1       3.904   1.238   0.000  0.00  0.00    +0.000 A 
ATOM      7  C   UNL     1       6.103  -0.017   0.000  0.00  0.00    +0.000 A 
ATOM      8  C   UNL     1       3.904  -0.412   0.000  0.00  0.00    +0.000 A 
ATOM      9  C   UNL     1       3.189   0.825   0.000  0.00  0.00    +0.000 A 
ATOM     10  C   UNL     1       5.356   1.266   0.000  0.00  0.00    +0.000 A 
ATOM     11  C   UNL     1       3.189   0.000   0.000  0.00  0.00    +0.000 A 
ATOM     12  C   UNL     1       6.103   0.842   0.000  0.00  0.00    +0.000 A 
ENDROOT
BRANCH   7  14
ATOM     13  O   UNL     1       8.955  -1.678   0.000  0.00  0.00    +0.000 OA
ATOM     14  C   UNL     1       6.816  -0.432   0.000  0.00  0.00    +0.000 A 
ATOM     15  C   UNL     1       7.532  -0.023   0.000  0.00  0.00    +0.000 A 
ATOM     16  C   UNL     1       6.813  -1.257   0.000  0.00  0.00    +0.000 A 
ATOM     17  C   UNL     1       8.245  -0.438   0.000  0.00  0.00    +0.000 A 
ATOM     18  C   UNL     1       7.526  -1.673   0.000  0.00  0.00    +0.000 A 
ATOM     19  C   UNL     1       8.242  -1.263   0.000  0.00  0.00    +0.000 A 
ENDBRANCH   7  14
BRANCH   9  20
ATOM     20  O   UNL     1       2.475   1.238   0.000  0.00  0.00    +0.000 OA
ATOM     21  C   UNL     1       1.760   0.825   0.000  0.00  0.00    +0.000 C 
ENDBRANCH   9  20
BRANCH  11  22
ATOM     22  O   UNL     1       2.475  -0.412   0.000  0.00  0.00    +0.000 OA
BRANCH  22  23
ATOM     23  S   UNL     1       2.475  -1.238   0.000  0.00  0.00    +0.000 S 
ATOM     24  O   UNL     1       2.475  -2.062   0.000  0.00  0.00    +0.000 OA
ATOM     25  O   UNL     1       1.650  -1.238   0.000  0.00  0.00    +0.000 OA
ATOM     26  O   UNL     1       3.300  -1.238   0.000  0.00  0.00    +0.000 OA
ENDBRANCH  22  23
ENDBRANCH  11  22
TORSDOF 4
