REMARK  Name = 44257905
REMARK  14 active torsions:
REMARK  status: ('A' for Active; 'I' for Inactive)
REMARK    1  A    between atoms: O_1  and  C_22
REMARK    2  A    between atoms: O_1  and  C_23
REMARK    3  A    between atoms: O_4  and  C_32
REMARK    4  A    between atoms: O_4  and  C_33
REMARK    5  A    between atoms: O_11  and  C_31
REMARK    6  A    between atoms: O_11  and  C_40
REMARK    7  A    between atoms: O_12  and  C_36
REMARK    8  A    between atoms: O_12  and  C_41
REMARK    9  A    between atoms: O_15  and  C_38
REMARK   10  A    between atoms: O_15  and  C_43
REMARK   11  A    between atoms: O_21  and  C_58
REMARK   12  A    between atoms: C_24  and  C_32
REMARK   13  A    between atoms: C_30  and  C_38
REMARK   14  A    between atoms: C_51  and  C_53
REMARK                            x       y       z     vdW  Elec       q    Type
REMARK                         _______ _______ _______ _____ _____    ______ ____
ROOT
ATOM      1  O   UNL     1       8.795   0.305   0.000  0.00  0.00    +0.000 OA
ATOM      2  O   UNL     1       7.366   1.955   0.000  0.00  0.00    +0.000 OA
ATOM      3  O   UNL     1      10.224   1.955   0.000  0.00  0.00    +0.000 OA
ATOM      4  C   UNL     1       8.795   1.955   0.000  0.00  0.00    +0.000 C 
ATOM      5  C   UNL     1       8.080   1.542   0.000  0.00  0.00    +0.000 C 
ATOM      6  C   UNL     1       9.509   1.542   0.000  0.00  0.00    +0.000 C 
ATOM      7  C   UNL     1       8.080   0.717   0.000  0.00  0.00    +0.000 C 
ATOM      8  C   UNL     1       9.509   0.717   0.000  0.00  0.00    +0.000 C 
ENDROOT
BRANCH   4   9
ATOM      9  O   UNL     1       8.795   2.780   0.000  0.00  0.00    +0.000 OA
BRANCH   9  14
ATOM     10  O   UNL     1       7.366   2.780   0.000  0.00  0.00    +0.000 OA
ATOM     11  O   UNL     1       8.795   4.430   0.000  0.00  0.00    +0.000 OA
ATOM     12  O   UNL     1       5.937   4.430   0.000  0.00  0.00    +0.000 OA
ATOM     13  O   UNL     1       7.366   5.255   0.000  0.00  0.00    +0.000 OA
ATOM     14  C   UNL     1       8.080   3.192   0.000  0.00  0.00    +0.000 C 
ATOM     15  C   UNL     1       6.651   3.192   0.000  0.00  0.00    +0.000 C 
ATOM     16  C   UNL     1       8.080   4.017   0.000  0.00  0.00    +0.000 C 
ATOM     17  C   UNL     1       6.651   4.017   0.000  0.00  0.00    +0.000 C 
ATOM     18  C   UNL     1       7.366   4.430   0.000  0.00  0.00    +0.000 C 
BRANCH  15  19
ATOM     19  C   UNL     1       5.937   2.780   0.000  0.00  0.00    +0.000 C 
BRANCH  19  20
ATOM     20  O   UNL     1       5.937   1.955   0.000  0.00  0.00    +0.000 OA
BRANCH  20  24
ATOM     21  O   UNL     1       4.508   1.955   0.000  0.00  0.00    +0.000 OA
ATOM     22  O   UNL     1       5.937   0.305   0.000  0.00  0.00    +0.000 OA
ATOM     23  O   UNL     1       4.508  -0.520   0.000  0.00  0.00    +0.000 OA
ATOM     24  C   UNL     1       5.222   1.542   0.000  0.00  0.00    +0.000 C 
ATOM     25  C   UNL     1       5.222   0.717   0.000  0.00  0.00    +0.000 C 
ATOM     26  C   UNL     1       4.508   0.305   0.000  0.00  0.00    +0.000 C 
ATOM     27  C   UNL     1       3.793   0.717   0.000  0.00  0.00    +0.000 C 
ATOM     28  C   UNL     1       3.793   1.542   0.000  0.00  0.00    +0.000 C 
ATOM     29  C   UNL     1       3.079   1.955   0.000  0.00  0.00    +0.000 C 
BRANCH  27  30
ATOM     30  O   UNL     1       3.079   0.305   0.000  0.00  0.00    +0.000 OA
BRANCH  30  32
ATOM     31  O   UNL     1       2.365   1.542   0.000  0.00  0.00    +0.000 OA
ATOM     32  C   UNL     1       2.365   0.717   0.000  0.00  0.00    +0.000 C 
ATOM     33  C   UNL     1       1.650   0.305   0.000  0.00  0.00    +0.000 C 
ENDBRANCH  30  32
ENDBRANCH  27  30
ENDBRANCH  20  24
ENDBRANCH  19  20
ENDBRANCH  15  19
ENDBRANCH   9  14
ENDBRANCH   4   9
BRANCH   8  34
ATOM     34  O   UNL     1      10.224   0.305   0.000  0.00  0.00    +0.000 OA
BRANCH  34  38
ATOM     35  O   UNL     1      11.672  -2.222   0.000  0.00  0.00    +0.000 OA
ATOM     36  O   UNL     1       8.783  -2.235   0.000  0.00  0.00    +0.000 OA
ATOM     37  O   UNL     1       9.534  -3.467   0.000  0.00  0.00    +0.000 OA
ATOM     38  C   UNL     1      10.224  -0.520   0.000  0.00  0.00    +0.000 A 
ATOM     39  C   UNL     1      10.966  -0.953   0.000  0.00  0.00    +0.000 A 
ATOM     40  C   UNL     1       9.481  -0.953   0.000  0.00  0.00    +0.000 A 
ATOM     41  C   UNL     1      10.956  -1.812   0.000  0.00  0.00    +0.000 A 
ATOM     42  C   UNL     1       9.491  -1.812   0.000  0.00  0.00    +0.000 A 
ATOM     43  C   UNL     1      10.243  -2.227   0.000  0.00  0.00    +0.000 A 
ATOM     44  C   UNL     1      10.247  -3.052   0.000  0.00  0.00    +0.000 A 
ATOM     45  C   UNL     1      11.675  -3.047   0.000  0.00  0.00    +0.000 A 
ATOM     46  C   UNL     1      10.963  -3.462   0.000  0.00  0.00    +0.000 A 
BRANCH  45  47
ATOM     47  C   UNL     1      12.392  -3.456   0.000  0.00  0.00    +0.000 A 
ATOM     48  C   UNL     1      13.104  -3.041   0.000  0.00  0.00    +0.000 A 
ATOM     49  C   UNL     1      12.395  -4.281   0.000  0.00  0.00    +0.000 A 
ATOM     50  C   UNL     1      13.820  -3.451   0.000  0.00  0.00    +0.000 A 
ATOM     51  C   UNL     1      13.111  -4.691   0.000  0.00  0.00    +0.000 A 
ATOM     52  C   UNL     1      13.824  -4.276   0.000  0.00  0.00    +0.000 A 
BRANCH  52  53
ATOM     53  O   UNL     1      14.540  -4.686   0.000  0.00  0.00    +0.000 OA
ATOM     54  C   UNL     1      14.543  -5.511   0.000  0.00  0.00    +0.000 C 
ENDBRANCH  52  53
ENDBRANCH  45  47
ENDBRANCH  34  38
ENDBRANCH   8  34
BRANCH   7  55
ATOM     55  C   UNL     1       7.366   0.305   0.000  0.00  0.00    +0.000 C 
BRANCH  55  56
ATOM     56  O   UNL     1       7.366  -0.520   0.000  0.00  0.00    +0.000 OA
BRANCH  56  58
ATOM     57  O   UNL     1       5.937  -0.520   0.000  0.00  0.00    +0.000 OA
ATOM     58  C   UNL     1       6.651  -0.933   0.000  0.00  0.00    +0.000 C 
ATOM     59  C   UNL     1       6.651  -1.758   0.000  0.00  0.00    +0.000 C 
ENDBRANCH  56  58
ENDBRANCH  55  56
ENDBRANCH   7  55
TORSDOF 14
