REMARK  Name = 44257070
REMARK  5 active torsions:
REMARK  status: ('A' for Active; 'I' for Inactive)
REMARK    1  A    between atoms: O_1  and  C_14
REMARK    2  A    between atoms: O_1  and  C_15
REMARK    3  A    between atoms: C_18  and  C_27
REMARK    4  A    between atoms: C_21  and  C_28
REMARK    5  A    between atoms: C_24  and  C_25
REMARK                            x       y       z     vdW  Elec       q    Type
REMARK                         _______ _______ _______ _____ _____    ______ ____
ROOT
ATOM      1  O   UNL     1       6.380   1.002   0.000  0.00  0.00    +0.000 OA
ATOM      2  O   UNL     1       3.490   0.999   0.000  0.00  0.00    +0.000 OA
ATOM      3  O   UNL     1       4.941   3.534   0.000  0.00  0.00    +0.000 OA
ATOM      4  C   UNL     1       5.665  -0.236   0.000  0.00  0.00    +0.000 C 
ATOM      5  C   UNL     1       6.380   0.177   0.000  0.00  0.00    +0.000 C 
ATOM      6  C   UNL     1       4.951   0.177   0.000  0.00  0.00    +0.000 C 
ATOM      7  C   UNL     1       4.951   1.002   0.000  0.00  0.00    +0.000 A 
ATOM      8  C   UNL     1       5.665   1.414   0.000  0.00  0.00    +0.000 A 
ATOM      9  C   UNL     1       5.679   2.273   0.000  0.00  0.00    +0.000 A 
ATOM     10  C   UNL     1       4.200   1.420   0.000  0.00  0.00    +0.000 A 
ATOM     11  C   UNL     1       4.938   2.709   0.000  0.00  0.00    +0.000 A 
ATOM     12  C   UNL     1       4.194   2.279   0.000  0.00  0.00    +0.000 A 
ENDROOT
BRANCH   5  15
ATOM     13  O   UNL     1       9.238   0.177   0.000  0.00  0.00    +0.000 OA
ATOM     14  O   UNL     1       9.238  -1.473   0.000  0.00  0.00    +0.000 OA
ATOM     15  C   UNL     1       7.094  -0.236   0.000  0.00  0.00    +0.000 A 
ATOM     16  C   UNL     1       7.809   0.177   0.000  0.00  0.00    +0.000 A 
ATOM     17  C   UNL     1       7.094  -1.061   0.000  0.00  0.00    +0.000 A 
ATOM     18  C   UNL     1       8.523  -0.236   0.000  0.00  0.00    +0.000 A 
ATOM     19  C   UNL     1       7.809  -1.473   0.000  0.00  0.00    +0.000 A 
ATOM     20  C   UNL     1       8.523  -1.061   0.000  0.00  0.00    +0.000 A 
ENDBRANCH   5  15
BRANCH   9  23
ATOM     21  O   UNL     1       8.526   2.845   0.000  0.00  0.00    +0.000 OA
ATOM     22  N   UNL     1       7.147   2.333   0.000  0.00  0.00    +0.000 NA
ATOM     23  C   UNL     1       6.398   2.678   0.000  0.00  0.00    +0.000 C 
ATOM     24  C   UNL     1       6.494   3.497   0.000  0.00  0.00    +0.000 C 
ATOM     25  C   UNL     1       7.302   3.659   0.000  0.00  0.00    +0.000 C 
ATOM     26  C   UNL     1       7.707   2.940   0.000  0.00  0.00    +0.000 C 
ENDBRANCH   9  23
BRANCH   4  27
ATOM     27  O   UNL     1       5.665  -1.061   0.000  0.00  0.00    +0.000 OA
BRANCH  27  32
ATOM     28  O   UNL     1       4.236  -1.061   0.000  0.00  0.00    +0.000 OA
ATOM     29  O   UNL     1       5.665  -2.711   0.000  0.00  0.00    +0.000 OA
ATOM     30  O   UNL     1       4.236  -3.536   0.000  0.00  0.00    +0.000 OA
ATOM     31  O   UNL     1       2.808  -2.711   0.000  0.00  0.00    +0.000 OA
ATOM     32  C   UNL     1       4.951  -1.473   0.000  0.00  0.00    +0.000 C 
ATOM     33  C   UNL     1       4.951  -2.298   0.000  0.00  0.00    +0.000 C 
ATOM     34  C   UNL     1       4.236  -2.711   0.000  0.00  0.00    +0.000 C 
ATOM     35  C   UNL     1       3.522  -2.298   0.000  0.00  0.00    +0.000 C 
ATOM     36  C   UNL     1       3.522  -1.473   0.000  0.00  0.00    +0.000 C 
BRANCH  36  38
ATOM     37  O   UNL     1       2.093  -1.473   0.000  0.00  0.00    +0.000 OA
ATOM     38  C   UNL     1       2.808  -1.061   0.000  0.00  0.00    +0.000 C 
ENDBRANCH  36  38
ENDBRANCH  27  32
ENDBRANCH   4  27
TORSDOF 5
