REMARK  Name = 131837146
REMARK  11 active torsions:
REMARK  status: ('A' for Active; 'I' for Inactive)
REMARK    1  A    between atoms: O_2  and  C_15
REMARK    2  A    between atoms: O_2  and  C_18
REMARK    3  A    between atoms: C_16  and  C_17
REMARK    4  A    between atoms: C_19  and  C_21
REMARK    5  A    between atoms: C_21  and  C_23
REMARK    6  A    between atoms: C_23  and  C_26
REMARK    7  A    between atoms: C_24  and  C_27
REMARK    8  A    between atoms: C_26  and  C_28
REMARK    9  A    between atoms: C_27  and  C_31
REMARK   10  A    between atoms: C_30  and  C_33
REMARK   11  A    between atoms: C_33  and  C_37
REMARK                            x       y       z     vdW  Elec       q    Type
REMARK                         _______ _______ _______ _____ _____    ______ ____
ROOT
ATOM      1  O   UNL     1       4.237   1.365   0.000  0.00  0.00    +0.000 OA
ATOM      2  C   UNL     1       5.665  -0.285   0.000  0.00  0.00    +0.000 A 
ATOM      3  C   UNL     1       6.380   0.128   0.000  0.00  0.00    +0.000 A 
ATOM      4  C   UNL     1       4.951   0.128   0.000  0.00  0.00    +0.000 A 
ATOM      5  C   UNL     1       6.380   0.953   0.000  0.00  0.00    +0.000 A 
ATOM      6  C   UNL     1       5.665   1.365   0.000  0.00  0.00    +0.000 A 
ATOM      7  C   UNL     1       4.951   0.953   0.000  0.00  0.00    +0.000 A 
ENDROOT
BRANCH   3   9
ATOM      8  O   UNL     1       7.094  -1.110   0.000  0.00  0.00    +0.000 OA
ATOM      9  C   UNL     1       7.094  -0.285   0.000  0.00  0.00    +0.000 C 
BRANCH   9  11
ATOM     10  O   UNL     1       7.809   0.953   0.000  0.00  0.00    +0.000 OA
ATOM     11  C   UNL     1       7.809   0.128   0.000  0.00  0.00    +0.000 C 
BRANCH  11  12
ATOM     12  C   UNL     1       8.523  -0.285   0.000  0.00  0.00    +0.000 C 
BRANCH  12  14
ATOM     13  O   UNL     1      11.381   1.365   0.000  0.00  0.00    +0.000 OA
ATOM     14  C   UNL     1       9.238   0.128   0.000  0.00  0.00    +0.000 A 
ATOM     15  C   UNL     1       9.952  -0.285   0.000  0.00  0.00    +0.000 A 
ATOM     16  C   UNL     1      10.667   0.128   0.000  0.00  0.00    +0.000 A 
ATOM     17  C   UNL     1       9.238   0.953   0.000  0.00  0.00    +0.000 A 
ATOM     18  C   UNL     1      10.667   0.953   0.000  0.00  0.00    +0.000 A 
ATOM     19  C   UNL     1       9.952   1.365   0.000  0.00  0.00    +0.000 A 
BRANCH  16  20
ATOM     20  C   UNL     1      11.381  -0.285   0.000  0.00  0.00    +0.000 C 
BRANCH  20  21
ATOM     21  C   UNL     1      11.381  -1.110   0.000  0.00  0.00    +0.000 C 
ATOM     22  C   UNL     1      12.096  -1.522   0.000  0.00  0.00    +0.000 C 
ATOM     23  C   UNL     1      12.096  -2.347   0.000  0.00  0.00    +0.000 C 
ATOM     24  C   UNL     1      12.810  -1.110   0.000  0.00  0.00    +0.000 C 
ENDBRANCH  20  21
ENDBRANCH  16  20
ENDBRANCH  12  14
ENDBRANCH  11  12
ENDBRANCH   9  11
ENDBRANCH   3   9
BRANCH   2  25
ATOM     25  O   UNL     1       5.665  -1.110   0.000  0.00  0.00    +0.000 OA
BRANCH  25  33
ATOM     26  O   UNL     1       4.237  -1.110   0.000  0.00  0.00    +0.000 OA
ATOM     27  O   UNL     1       4.237  -3.585   0.000  0.00  0.00    +0.000 OA
ATOM     28  O   UNL     1       5.665  -2.760   0.000  0.00  0.00    +0.000 OA
ATOM     29  O   UNL     1       2.808  -2.760   0.000  0.00  0.00    +0.000 OA
ATOM     30  C   UNL     1       4.237  -2.760   0.000  0.00  0.00    +0.000 C 
ATOM     31  C   UNL     1       4.951  -2.347   0.000  0.00  0.00    +0.000 C 
ATOM     32  C   UNL     1       3.522  -2.347   0.000  0.00  0.00    +0.000 C 
ATOM     33  C   UNL     1       4.951  -1.522   0.000  0.00  0.00    +0.000 C 
ATOM     34  C   UNL     1       3.522  -1.522   0.000  0.00  0.00    +0.000 C 
BRANCH  34  37
ATOM     35  O   UNL     1       2.093  -1.522   0.000  0.00  0.00    +0.000 OA
ATOM     36  O   UNL     1       2.808  -0.285   0.000  0.00  0.00    +0.000 OA
ATOM     37  C   UNL     1       2.808  -1.110   0.000  0.00  0.00    +0.000 C 
ENDBRANCH  34  37
ENDBRANCH  25  33
ENDBRANCH   2  25
BRANCH   6  38
ATOM     38  C   UNL     1       5.665   2.190   0.000  0.00  0.00    +0.000 C 
BRANCH  38  39
ATOM     39  C   UNL     1       6.380   2.603   0.000  0.00  0.00    +0.000 C 
ATOM     40  C   UNL     1       6.380   3.428   0.000  0.00  0.00    +0.000 C 
ATOM     41  C   UNL     1       7.094   3.841   0.000  0.00  0.00    +0.000 C 
ATOM     42  C   UNL     1       5.665   3.841   0.000  0.00  0.00    +0.000 C 
ENDBRANCH  38  39
ENDBRANCH   6  38
TORSDOF 11
