REMARK  Name = 44259081
REMARK  9 active torsions:
REMARK  status: ('A' for Active; 'I' for Inactive)
REMARK    1  A    between atoms: O_1  and  C_16
REMARK    2  A    between atoms: O_1  and  C_19
REMARK    3  A    between atoms: O_4  and  C_20
REMARK    4  A    between atoms: O_4  and  C_28
REMARK    5  A    between atoms: O_15  and  C_47
REMARK    6  A    between atoms: C_29  and  C_37
REMARK    7  A    between atoms: C_33  and  C_34
REMARK    8  A    between atoms: C_34  and  C_35
REMARK    9  A    between atoms: C_35  and  C_36
REMARK                            x       y       z     vdW  Elec       q    Type
REMARK                         _______ _______ _______ _____ _____    ______ ____
ROOT
ATOM      1  O   UNL     1       5.665   1.724   0.000  0.00  0.00    +0.000 OA
ATOM      2  O   UNL     1       3.522   0.486   0.000  0.00  0.00    +0.000 OA
ATOM      3  O   UNL     1       2.776   1.721   0.000  0.00  0.00    +0.000 OA
ATOM      4  O   UNL     1       4.226   4.256   0.000  0.00  0.00    +0.000 OA
ATOM      5  C   UNL     1       4.951   0.486   0.000  0.00  0.00    +0.000 A 
ATOM      6  C   UNL     1       5.665   0.899   0.000  0.00  0.00    +0.000 A 
ATOM      7  C   UNL     1       4.236   0.899   0.000  0.00  0.00    +0.000 A 
ATOM      8  C   UNL     1       4.236   1.724   0.000  0.00  0.00    +0.000 A 
ATOM      9  C   UNL     1       4.951   2.136   0.000  0.00  0.00    +0.000 A 
ATOM     10  C   UNL     1       4.964   2.995   0.000  0.00  0.00    +0.000 A 
ATOM     11  C   UNL     1       3.486   2.142   0.000  0.00  0.00    +0.000 A 
ATOM     12  C   UNL     1       4.223   3.431   0.000  0.00  0.00    +0.000 A 
ATOM     13  C   UNL     1       3.479   3.001   0.000  0.00  0.00    +0.000 A 
ENDROOT
BRANCH   6  14
ATOM     14  C   UNL     1       6.380   0.486   0.000  0.00  0.00    +0.000 A 
ATOM     15  C   UNL     1       6.380  -0.339   0.000  0.00  0.00    +0.000 A 
ATOM     16  C   UNL     1       7.094   0.899   0.000  0.00  0.00    +0.000 A 
ATOM     17  C   UNL     1       7.094  -0.751   0.000  0.00  0.00    +0.000 A 
ATOM     18  C   UNL     1       7.809   0.486   0.000  0.00  0.00    +0.000 A 
ATOM     19  C   UNL     1       7.809  -0.339   0.000  0.00  0.00    +0.000 A 
BRANCH  19  20
ATOM     20  O   UNL     1       8.523  -0.751   0.000  0.00  0.00    +0.000 OA
ATOM     21  C   UNL     1       9.238  -0.339   0.000  0.00  0.00    +0.000 C 
ENDBRANCH  19  20
ENDBRANCH   6  14
BRANCH   5  22
ATOM     22  O   UNL     1       4.951  -0.339   0.000  0.00  0.00    +0.000 OA
BRANCH  22  29
ATOM     23  O   UNL     1       3.522  -0.339   0.000  0.00  0.00    +0.000 OA
ATOM     24  O   UNL     1       3.522  -2.814   0.000  0.00  0.00    +0.000 OA
ATOM     25  O   UNL     1       2.093  -1.989   0.000  0.00  0.00    +0.000 OA
ATOM     26  C   UNL     1       4.236  -1.576   0.000  0.00  0.00    +0.000 C 
ATOM     27  C   UNL     1       3.522  -1.989   0.000  0.00  0.00    +0.000 C 
ATOM     28  C   UNL     1       2.808  -1.576   0.000  0.00  0.00    +0.000 C 
ATOM     29  C   UNL     1       4.236  -0.751   0.000  0.00  0.00    +0.000 C 
ATOM     30  C   UNL     1       2.808  -0.751   0.000  0.00  0.00    +0.000 C 
ATOM     31  C   UNL     1       2.093  -0.339   0.000  0.00  0.00    +0.000 C 
BRANCH  26  32
ATOM     32  O   UNL     1       4.951  -1.989   0.000  0.00  0.00    +0.000 OA
BRANCH  32  37
ATOM     33  O   UNL     1       4.236  -3.226   0.000  0.00  0.00    +0.000 OA
ATOM     34  O   UNL     1       6.380  -2.814   0.000  0.00  0.00    +0.000 OA
ATOM     35  O   UNL     1       6.380  -4.464   0.000  0.00  0.00    +0.000 OA
ATOM     36  O   UNL     1       4.951  -5.289   0.000  0.00  0.00    +0.000 OA
ATOM     37  C   UNL     1       4.951  -2.814   0.000  0.00  0.00    +0.000 C 
ATOM     38  C   UNL     1       5.665  -3.226   0.000  0.00  0.00    +0.000 C 
ATOM     39  C   UNL     1       5.665  -4.051   0.000  0.00  0.00    +0.000 C 
ATOM     40  C   UNL     1       4.951  -4.464   0.000  0.00  0.00    +0.000 C 
ATOM     41  C   UNL     1       4.236  -4.051   0.000  0.00  0.00    +0.000 C 
ATOM     42  C   UNL     1       3.522  -4.464   0.000  0.00  0.00    +0.000 C 
ENDBRANCH  32  37
ENDBRANCH  26  32
ENDBRANCH  22  29
ENDBRANCH   5  22
BRANCH  10  43
ATOM     43  C   UNL     1       5.683   3.400   0.000  0.00  0.00    +0.000 C 
BRANCH  43  44
ATOM     44  C   UNL     1       5.693   4.225   0.000  0.00  0.00    +0.000 C 
BRANCH  44  46
ATOM     45  O   UNL     1       7.131   5.033   0.000  0.00  0.00    +0.000 OA
ATOM     46  C   UNL     1       6.412   4.629   0.000  0.00  0.00    +0.000 C 
ATOM     47  C   UNL     1       6.008   5.348   0.000  0.00  0.00    +0.000 C 
ATOM     48  C   UNL     1       6.816   3.910   0.000  0.00  0.00    +0.000 C 
ENDBRANCH  44  46
ENDBRANCH  43  44
ENDBRANCH  10  43
TORSDOF 9
