REMARK  Name = 131752324
REMARK  10 active torsions:
REMARK  status: ('A' for Active; 'I' for Inactive)
REMARK    1  A    between atoms: O_1  and  C_24
REMARK    2  A    between atoms: O_1  and  C_26
REMARK    3  A    between atoms: O_5  and  C_29
REMARK    4  A    between atoms: O_5  and  C_41
REMARK    5  A    between atoms: O_12  and  C_40
REMARK    6  A    between atoms: O_12  and  C_48
REMARK    7  A    between atoms: C_32  and  C_34
REMARK    8  A    between atoms: C_33  and  C_36
REMARK    9  A    between atoms: C_39  and  C_42
REMARK   10  A    between atoms: C_49  and  C_51
REMARK                            x       y       z     vdW  Elec       q    Type
REMARK                         _______ _______ _______ _____ _____    ______ ____
ROOT
ATOM      1  O   UNL     1       7.114   0.855   0.000  0.00  0.00    +0.000 OA
ATOM      2  O   UNL     1       4.225   0.869   0.000  0.00  0.00    +0.000 OA
ATOM      3  O   UNL     1       4.975   2.101   0.000  0.00  0.00    +0.000 OA
ATOM      4  C   UNL     1       5.665  -0.846   0.000  0.00  0.00    +0.000 A 
ATOM      5  C   UNL     1       6.408  -0.414   0.000  0.00  0.00    +0.000 A 
ATOM      6  C   UNL     1       4.923  -0.414   0.000  0.00  0.00    +0.000 A 
ATOM      7  C   UNL     1       6.398   0.446   0.000  0.00  0.00    +0.000 A 
ATOM      8  C   UNL     1       4.933   0.446   0.000  0.00  0.00    +0.000 A 
ATOM      9  C   UNL     1       5.685   0.861   0.000  0.00  0.00    +0.000 A 
ATOM     10  C   UNL     1       7.117   1.680   0.000  0.00  0.00    +0.000 A 
ATOM     11  C   UNL     1       5.688   1.686   0.000  0.00  0.00    +0.000 A 
ATOM     12  C   UNL     1       6.404   2.096   0.000  0.00  0.00    +0.000 A 
ENDROOT
BRANCH  10  14
ATOM     13  C   UNL     1       9.265   2.910   0.000  0.00  0.00    +0.000 A 
ATOM     14  C   UNL     1       7.833   2.090   0.000  0.00  0.00    +0.000 A 
ATOM     15  C   UNL     1       8.552   3.325   0.000  0.00  0.00    +0.000 A 
ATOM     16  C   UNL     1       9.262   2.085   0.000  0.00  0.00    +0.000 A 
ATOM     17  C   UNL     1       7.836   2.915   0.000  0.00  0.00    +0.000 A 
ATOM     18  C   UNL     1       8.546   1.675   0.000  0.00  0.00    +0.000 A 
BRANCH  13  19
ATOM     19  O   UNL     1       9.981   3.320   0.000  0.00  0.00    +0.000 OA
BRANCH  19  28
ATOM     20  O   UNL     1      10.701   4.554   0.000  0.00  0.00    +0.000 OA
ATOM     21  O   UNL     1       8.562   5.800   0.000  0.00  0.00    +0.000 OA
ATOM     22  O   UNL     1       9.994   6.619   0.000  0.00  0.00    +0.000 OA
ATOM     23  O   UNL     1       8.556   4.150   0.000  0.00  0.00    +0.000 OA
ATOM     24  C   UNL     1       9.275   5.385   0.000  0.00  0.00    +0.000 C 
ATOM     25  C   UNL     1       9.991   5.794   0.000  0.00  0.00    +0.000 C 
ATOM     26  C   UNL     1       9.272   4.560   0.000  0.00  0.00    +0.000 C 
ATOM     27  C   UNL     1      10.704   5.379   0.000  0.00  0.00    +0.000 C 
ATOM     28  C   UNL     1       9.985   4.144   0.000  0.00  0.00    +0.000 C 
BRANCH  27  31
ATOM     29  O   UNL     1      12.133   5.374   0.000  0.00  0.00    +0.000 OA
ATOM     30  O   UNL     1      11.423   6.614   0.000  0.00  0.00    +0.000 OA
ATOM     31  C   UNL     1      11.420   5.789   0.000  0.00  0.00    +0.000 C 
ENDBRANCH  27  31
ENDBRANCH  19  28
ENDBRANCH  13  19
ENDBRANCH  10  14
BRANCH   4  32
ATOM     32  O   UNL     1       5.665  -1.671   0.000  0.00  0.00    +0.000 OA
BRANCH  32  39
ATOM     33  O   UNL     1       4.236  -1.671   0.000  0.00  0.00    +0.000 OA
ATOM     34  O   UNL     1       4.236  -4.146   0.000  0.00  0.00    +0.000 OA
ATOM     35  O   UNL     1       2.808  -3.321   0.000  0.00  0.00    +0.000 OA
ATOM     36  C   UNL     1       4.951  -2.909   0.000  0.00  0.00    +0.000 C 
ATOM     37  C   UNL     1       4.236  -3.321   0.000  0.00  0.00    +0.000 C 
ATOM     38  C   UNL     1       3.522  -2.909   0.000  0.00  0.00    +0.000 C 
ATOM     39  C   UNL     1       4.951  -2.084   0.000  0.00  0.00    +0.000 C 
ATOM     40  C   UNL     1       3.522  -2.084   0.000  0.00  0.00    +0.000 C 
BRANCH  40  43
ATOM     41  O   UNL     1       2.093  -2.084   0.000  0.00  0.00    +0.000 OA
ATOM     42  O   UNL     1       2.808  -0.846   0.000  0.00  0.00    +0.000 OA
ATOM     43  C   UNL     1       2.808  -1.671   0.000  0.00  0.00    +0.000 C 
ENDBRANCH  40  43
BRANCH  36  44
ATOM     44  O   UNL     1       5.665  -3.321   0.000  0.00  0.00    +0.000 OA
BRANCH  44  49
ATOM     45  O   UNL     1       4.951  -4.559   0.000  0.00  0.00    +0.000 OA
ATOM     46  O   UNL     1       7.094  -4.146   0.000  0.00  0.00    +0.000 OA
ATOM     47  O   UNL     1       7.094  -5.796   0.000  0.00  0.00    +0.000 OA
ATOM     48  O   UNL     1       5.665  -6.621   0.000  0.00  0.00    +0.000 OA
ATOM     49  C   UNL     1       5.665  -4.146   0.000  0.00  0.00    +0.000 C 
ATOM     50  C   UNL     1       6.380  -4.559   0.000  0.00  0.00    +0.000 C 
ATOM     51  C   UNL     1       6.380  -5.384   0.000  0.00  0.00    +0.000 C 
ATOM     52  C   UNL     1       5.665  -5.796   0.000  0.00  0.00    +0.000 C 
ATOM     53  C   UNL     1       4.951  -5.384   0.000  0.00  0.00    +0.000 C 
BRANCH  53  56
ATOM     54  O   UNL     1       4.236  -6.621   0.000  0.00  0.00    +0.000 OA
ATOM     55  O   UNL     1       3.522  -5.384   0.000  0.00  0.00    +0.000 OA
ATOM     56  C   UNL     1       4.236  -5.796   0.000  0.00  0.00    +0.000 C 
ENDBRANCH  53  56
ENDBRANCH  44  49
ENDBRANCH  36  44
ENDBRANCH  32  39
ENDBRANCH   4  32
TORSDOF 10
