REMARK  Name = 44258546
REMARK  6 active torsions:
REMARK  status: ('A' for Active; 'I' for Inactive)
REMARK    1  A    between atoms: O_2  and  C_18
REMARK    2  A    between atoms: O_2  and  C_20
REMARK    3  A    between atoms: O_10  and  C_31
REMARK    4  A    between atoms: O_11  and  C_33
REMARK    5  A    between atoms: C_17  and  C_19
REMARK    6  A    between atoms: C_21  and  C_23
REMARK                            x       y       z     vdW  Elec       q    Type
REMARK                         _______ _______ _______ _____ _____    ______ ____
ROOT
ATOM      1  O   UNL     1       6.651   2.347   0.000  0.00  0.00    +0.000 OA
ATOM      2  C   UNL     1       5.222   0.697   0.000  0.00  0.00    +0.000 A 
ATOM      3  C   UNL     1       5.937   1.110   0.000  0.00  0.00    +0.000 A 
ATOM      4  C   UNL     1       4.508   1.110   0.000  0.00  0.00    +0.000 A 
ATOM      5  C   UNL     1       5.937   1.935   0.000  0.00  0.00    +0.000 A 
ATOM      6  C   UNL     1       4.508   1.935   0.000  0.00  0.00    +0.000 A 
ATOM      7  C   UNL     1       5.222   2.347   0.000  0.00  0.00    +0.000 A 
ENDROOT
BRANCH   3  11
ATOM      8  O   UNL     1       7.366   1.110   0.000  0.00  0.00    +0.000 OA
ATOM      9  O   UNL     1       7.366  -1.365   0.000  0.00  0.00    +0.000 OA
ATOM     10  O   UNL     1       8.808  -1.394   0.000  0.00  0.00    +0.000 OA
ATOM     11  C   UNL     1       6.651   0.697   0.000  0.00  0.00    +0.000 A 
ATOM     12  C   UNL     1       8.080   0.697   0.000  0.00  0.00    +0.000 A 
ATOM     13  C   UNL     1       6.651  -0.128   0.000  0.00  0.00    +0.000 A 
ATOM     14  C   UNL     1       8.080  -0.128   0.000  0.00  0.00    +0.000 A 
ATOM     15  C   UNL     1       7.366  -0.540   0.000  0.00  0.00    +0.000 A 
ATOM     16  C   UNL     1       8.818   1.138   0.000  0.00  0.00    +0.000 A 
ATOM     17  C   UNL     1       8.818  -0.569   0.000  0.00  0.00    +0.000 A 
ATOM     18  C   UNL     1       9.565   0.714   0.000  0.00  0.00    +0.000 A 
ATOM     19  C   UNL     1       9.565  -0.145   0.000  0.00  0.00    +0.000 A 
BRANCH  16  20
ATOM     20  O   UNL     1       8.808   1.963   0.000  0.00  0.00    +0.000 OA
ATOM     21  C   UNL     1       9.518   2.384   0.000  0.00  0.00    +0.000 C 
ENDBRANCH  16  20
BRANCH  18  22
ATOM     22  O   UNL     1      10.278   1.130   0.000  0.00  0.00    +0.000 OA
ATOM     23  C   UNL     1      10.994   0.720   0.000  0.00  0.00    +0.000 C 
ENDBRANCH  18  22
ENDBRANCH   3  11
BRANCH   2  24
ATOM     24  O   UNL     1       5.222  -0.128   0.000  0.00  0.00    +0.000 OA
BRANCH  24  33
ATOM     25  O   UNL     1       3.793  -0.128   0.000  0.00  0.00    +0.000 OA
ATOM     26  O   UNL     1       3.793  -2.603   0.000  0.00  0.00    +0.000 OA
ATOM     27  O   UNL     1       5.222  -1.778   0.000  0.00  0.00    +0.000 OA
ATOM     28  O   UNL     1       2.364  -1.778   0.000  0.00  0.00    +0.000 OA
ATOM     29  C   UNL     1       3.793  -1.778   0.000  0.00  0.00    +0.000 C 
ATOM     30  C   UNL     1       4.508  -1.365   0.000  0.00  0.00    +0.000 C 
ATOM     31  C   UNL     1       3.079  -1.365   0.000  0.00  0.00    +0.000 C 
ATOM     32  C   UNL     1       3.079  -0.540   0.000  0.00  0.00    +0.000 C 
ATOM     33  C   UNL     1       4.508  -0.540   0.000  0.00  0.00    +0.000 C 
BRANCH  32  36
ATOM     34  O   UNL     1       1.650  -0.540   0.000  0.00  0.00    +0.000 OA
ATOM     35  O   UNL     1       2.364   0.697   0.000  0.00  0.00    +0.000 OA
ATOM     36  C   UNL     1       2.364  -0.128   0.000  0.00  0.00    +0.000 C 
ENDBRANCH  32  36
ENDBRANCH  24  33
ENDBRANCH   2  24
TORSDOF 6
