REMARK  Name = 44257162
REMARK  9 active torsions:
REMARK  status: ('A' for Active; 'I' for Inactive)
REMARK    1  A    between atoms: O_2  and  C_20
REMARK    2  A    between atoms: O_2  and  C_21
REMARK    3  A    between atoms: O_3  and  C_23
REMARK    4  A    between atoms: O_3  and  C_27
REMARK    5  A    between atoms: O_12  and  C_32
REMARK    6  A    between atoms: C_16  and  C_23
REMARK    7  A    between atoms: C_24  and  C_31
REMARK    8  A    between atoms: C_33  and  C_37
REMARK    9  A    between atoms: C_37  and  C_40
REMARK                            x       y       z     vdW  Elec       q    Type
REMARK                         _______ _______ _______ _____ _____    ______ ____
ROOT
ATOM      1  O   UNL     1       8.523   1.343   0.000  0.00  0.00    +0.000 OA
ATOM      2  O   UNL     1       7.094  -0.307   0.000  0.00  0.00    +0.000 OA
ATOM      3  O   UNL     1      11.436   1.363   0.000  0.00  0.00    +0.000 OA
ATOM      4  C   UNL     1       8.523  -0.307   0.000  0.00  0.00    +0.000 C 
ATOM      5  C   UNL     1       7.809   0.105   0.000  0.00  0.00    +0.000 C 
ATOM      6  C   UNL     1       7.809   0.930   0.000  0.00  0.00    +0.000 C 
ATOM      7  C   UNL     1       9.238   0.105   0.000  0.00  0.00    +0.000 A 
ATOM      8  C   UNL     1       9.238   0.930   0.000  0.00  0.00    +0.000 A 
ATOM      9  C   UNL     1       9.975  -0.336   0.000  0.00  0.00    +0.000 A 
ATOM     10  C   UNL     1       9.975   1.371   0.000  0.00  0.00    +0.000 A 
ATOM     11  C   UNL     1      10.723   0.948   0.000  0.00  0.00    +0.000 A 
ATOM     12  C   UNL     1      10.723   0.088   0.000  0.00  0.00    +0.000 A 
ENDROOT
BRANCH   6  14
ATOM     13  O   UNL     1       4.951   2.580   0.000  0.00  0.00    +0.000 OA
ATOM     14  C   UNL     1       7.094   1.343   0.000  0.00  0.00    +0.000 A 
ATOM     15  C   UNL     1       6.380   0.930   0.000  0.00  0.00    +0.000 A 
ATOM     16  C   UNL     1       7.094   2.168   0.000  0.00  0.00    +0.000 A 
ATOM     17  C   UNL     1       5.665   1.343   0.000  0.00  0.00    +0.000 A 
ATOM     18  C   UNL     1       6.380   2.580   0.000  0.00  0.00    +0.000 A 
ATOM     19  C   UNL     1       5.665   2.168   0.000  0.00  0.00    +0.000 A 
ENDBRANCH   6  14
BRANCH   9  20
ATOM     20  O   UNL     1       9.966  -1.161   0.000  0.00  0.00    +0.000 OA
ATOM     21  C   UNL     1      10.675  -1.581   0.000  0.00  0.00    +0.000 C 
ENDBRANCH   9  20
BRANCH   4  22
ATOM     22  O   UNL     1       8.523  -1.132   0.000  0.00  0.00    +0.000 OA
BRANCH  22  31
ATOM     23  O   UNL     1       7.094  -1.132   0.000  0.00  0.00    +0.000 OA
ATOM     24  O   UNL     1       5.665  -2.782   0.000  0.00  0.00    +0.000 OA
ATOM     25  O   UNL     1       7.094  -3.607   0.000  0.00  0.00    +0.000 OA
ATOM     26  O   UNL     1       8.523  -2.782   0.000  0.00  0.00    +0.000 OA
ATOM     27  C   UNL     1       6.380  -1.545   0.000  0.00  0.00    +0.000 C 
ATOM     28  C   UNL     1       6.380  -2.370   0.000  0.00  0.00    +0.000 C 
ATOM     29  C   UNL     1       7.094  -2.782   0.000  0.00  0.00    +0.000 C 
ATOM     30  C   UNL     1       7.809  -2.370   0.000  0.00  0.00    +0.000 C 
ATOM     31  C   UNL     1       7.809  -1.545   0.000  0.00  0.00    +0.000 C 
BRANCH  27  32
ATOM     32  C   UNL     1       5.665  -1.132   0.000  0.00  0.00    +0.000 C 
BRANCH  32  33
ATOM     33  O   UNL     1       4.951  -1.545   0.000  0.00  0.00    +0.000 OA
BRANCH  33  38
ATOM     34  O   UNL     1       3.522  -1.545   0.000  0.00  0.00    +0.000 OA
ATOM     35  O   UNL     1       4.951   0.105   0.000  0.00  0.00    +0.000 OA
ATOM     36  O   UNL     1       3.522   0.930   0.000  0.00  0.00    +0.000 OA
ATOM     37  O   UNL     1       2.093   0.105   0.000  0.00  0.00    +0.000 OA
ATOM     38  C   UNL     1       4.236  -1.132   0.000  0.00  0.00    +0.000 C 
ATOM     39  C   UNL     1       4.236  -0.307   0.000  0.00  0.00    +0.000 C 
ATOM     40  C   UNL     1       3.522   0.105   0.000  0.00  0.00    +0.000 C 
ATOM     41  C   UNL     1       2.808  -0.307   0.000  0.00  0.00    +0.000 C 
ATOM     42  C   UNL     1       2.808  -1.132   0.000  0.00  0.00    +0.000 C 
ENDBRANCH  33  38
ENDBRANCH  32  33
ENDBRANCH  27  32
ENDBRANCH  22  31
ENDBRANCH   4  22
BRANCH  10  43
ATOM     43  C   UNL     1       9.966   2.196   0.000  0.00  0.00    +0.000 C 
BRANCH  43  44
ATOM     44  C   UNL     1      10.675   2.617   0.000  0.00  0.00    +0.000 C 
ATOM     45  C   UNL     1      10.666   3.442   0.000  0.00  0.00    +0.000 C 
ATOM     46  C   UNL     1      11.375   3.863   0.000  0.00  0.00    +0.000 C 
ATOM     47  C   UNL     1       9.947   3.846   0.000  0.00  0.00    +0.000 C 
ENDBRANCH  43  44
ENDBRANCH  10  43
TORSDOF 9
