REMARK  Name = 73822539
REMARK  9 active torsions:
REMARK  status: ('A' for Active; 'I' for Inactive)
REMARK    1  A    between atoms: O_3  and  C_26
REMARK    2  A    between atoms: O_3  and  C_30
REMARK    3  A    between atoms: O_6  and  C_27
REMARK    4  A    between atoms: O_6  and  C_31
REMARK    5  A    between atoms: O_11  and  C_28
REMARK    6  A    between atoms: O_11  and  C_40
REMARK    7  A    between atoms: C_20  and  C_28
REMARK    8  A    between atoms: C_25  and  C_29
REMARK    9  A    between atoms: C_34  and  C_39
REMARK                            x       y       z     vdW  Elec       q    Type
REMARK                         _______ _______ _______ _____ _____    ______ ____
ROOT
ATOM      1  O   UNL     1       7.366  -0.238   0.000  0.00  0.00    +0.000 OA
ATOM      2  O   UNL     1       5.222  -1.476   0.000  0.00  0.00    +0.000 OA
ATOM      3  O   UNL     1       4.476  -0.241   0.000  0.00  0.00    +0.000 OA
ATOM      4  C   UNL     1       6.651  -1.476   0.000  0.00  0.00    +0.000 A 
ATOM      5  C   UNL     1       5.924   1.469   0.000  0.00  0.00    +0.000 A 
ATOM      6  C   UNL     1       5.937  -0.238   0.000  0.00  0.00    +0.000 A 
ATOM      7  C   UNL     1       5.937  -1.063   0.000  0.00  0.00    +0.000 A 
ATOM      8  C   UNL     1       7.366  -1.063   0.000  0.00  0.00    +0.000 A 
ATOM      9  C   UNL     1       6.651   0.174   0.000  0.00  0.00    +0.000 A 
ATOM     10  C   UNL     1       6.665   1.033   0.000  0.00  0.00    +0.000 A 
ATOM     11  C   UNL     1       5.179   1.039   0.000  0.00  0.00    +0.000 A 
ATOM     12  C   UNL     1       5.186   0.180   0.000  0.00  0.00    +0.000 A 
ENDROOT
BRANCH   8  14
ATOM     13  O   UNL     1      10.224  -2.713   0.000  0.00  0.00    +0.000 OA
ATOM     14  C   UNL     1       8.080  -1.476   0.000  0.00  0.00    +0.000 A 
ATOM     15  C   UNL     1       8.080  -2.301   0.000  0.00  0.00    +0.000 A 
ATOM     16  C   UNL     1       8.795  -1.063   0.000  0.00  0.00    +0.000 A 
ATOM     17  C   UNL     1       8.795  -2.713   0.000  0.00  0.00    +0.000 A 
ATOM     18  C   UNL     1       9.509  -1.476   0.000  0.00  0.00    +0.000 A 
ATOM     19  C   UNL     1       9.509  -2.301   0.000  0.00  0.00    +0.000 A 
ENDBRANCH   8  14
BRANCH   4  20
ATOM     20  O   UNL     1       6.651  -2.301   0.000  0.00  0.00    +0.000 OA
BRANCH  20  29
ATOM     21  O   UNL     1       5.222  -2.301   0.000  0.00  0.00    +0.000 OA
ATOM     22  O   UNL     1       3.793  -3.951   0.000  0.00  0.00    +0.000 OA
ATOM     23  O   UNL     1       5.222  -4.776   0.000  0.00  0.00    +0.000 OA
ATOM     24  O   UNL     1       6.651  -3.951   0.000  0.00  0.00    +0.000 OA
ATOM     25  C   UNL     1       4.508  -3.538   0.000  0.00  0.00    +0.000 C 
ATOM     26  C   UNL     1       5.222  -3.951   0.000  0.00  0.00    +0.000 C 
ATOM     27  C   UNL     1       4.508  -2.713   0.000  0.00  0.00    +0.000 C 
ATOM     28  C   UNL     1       5.937  -3.538   0.000  0.00  0.00    +0.000 C 
ATOM     29  C   UNL     1       5.937  -2.713   0.000  0.00  0.00    +0.000 C 
BRANCH  27  30
ATOM     30  C   UNL     1       3.793  -2.301   0.000  0.00  0.00    +0.000 C 
BRANCH  30  31
ATOM     31  O   UNL     1       3.079  -2.713   0.000  0.00  0.00    +0.000 OA
BRANCH  31  33
ATOM     32  O   UNL     1       2.364  -1.476   0.000  0.00  0.00    +0.000 OA
ATOM     33  C   UNL     1       2.364  -2.301   0.000  0.00  0.00    +0.000 C 
ATOM     34  C   UNL     1       1.650  -2.713   0.000  0.00  0.00    +0.000 C 
ENDBRANCH  31  33
ENDBRANCH  30  31
ENDBRANCH  27  30
ENDBRANCH  20  29
ENDBRANCH   4  20
BRANCH   5  35
ATOM     35  O   UNL     1       5.927   2.294   0.000  0.00  0.00    +0.000 OA
BRANCH  35  44
ATOM     36  O   UNL     1       4.498   2.299   0.000  0.00  0.00    +0.000 OA
ATOM     37  O   UNL     1       4.508   4.774   0.000  0.00  0.00    +0.000 OA
ATOM     38  O   UNL     1       3.075   3.955   0.000  0.00  0.00    +0.000 OA
ATOM     39  O   UNL     1       5.933   3.944   0.000  0.00  0.00    +0.000 OA
ATOM     40  C   UNL     1       4.504   3.949   0.000  0.00  0.00    +0.000 C 
ATOM     41  C   UNL     1       3.788   3.539   0.000  0.00  0.00    +0.000 C 
ATOM     42  C   UNL     1       5.217   3.534   0.000  0.00  0.00    +0.000 C 
ATOM     43  C   UNL     1       3.785   2.715   0.000  0.00  0.00    +0.000 C 
ATOM     44  C   UNL     1       5.214   2.709   0.000  0.00  0.00    +0.000 C 
BRANCH  43  46
ATOM     45  O   UNL     1       2.356   2.720   0.000  0.00  0.00    +0.000 OA
ATOM     46  C   UNL     1       3.069   2.305   0.000  0.00  0.00    +0.000 C 
ENDBRANCH  43  46
ENDBRANCH  35  44
ENDBRANCH   5  35
TORSDOF 9
