REMARK  Name = 44258758
REMARK  10 active torsions:
REMARK  status: ('A' for Active; 'I' for Inactive)
REMARK    1  A    between atoms: O_1  and  C_24
REMARK    2  A    between atoms: O_1  and  C_29
REMARK    3  A    between atoms: O_4  and  C_28
REMARK    4  A    between atoms: O_4  and  C_37
REMARK    5  A    between atoms: O_13  and  C_40
REMARK    6  A    between atoms: O_13  and  C_47
REMARK    7  A    between atoms: O_16  and  C_46
REMARK    8  A    between atoms: O_16  and  C_52
REMARK    9  A    between atoms: C_32  and  C_37
REMARK   10  A    between atoms: C_49  and  C_57
REMARK                            x       y       z     vdW  Elec       q    Type
REMARK                         _______ _______ _______ _____ _____    ______ ____
ROOT
ATOM      1  O   UNL     1       9.297   1.316   0.000  0.00  0.00    +0.000 OA
ENDROOT
BRANCH   1   5
ATOM      2  O   UNL     1       7.869   2.966   0.000  0.00  0.00    +0.000 OA
ATOM      3  O   UNL     1       7.869   0.491   0.000  0.00  0.00    +0.000 OA
ATOM      4  O   UNL     1       6.426   0.462   0.000  0.00  0.00    +0.000 OA
ATOM      5  C   UNL     1       8.583   1.728   0.000  0.00  0.00    +0.000 A 
ATOM      6  C   UNL     1       8.583   2.553   0.000  0.00  0.00    +0.000 A 
ATOM      7  C   UNL     1       7.869   1.316   0.000  0.00  0.00    +0.000 A 
ATOM      8  C   UNL     1       7.154   1.728   0.000  0.00  0.00    +0.000 A 
ATOM      9  C   UNL     1       5.669   2.571   0.000  0.00  0.00    +0.000 A 
ATOM     10  C   UNL     1       7.154   2.553   0.000  0.00  0.00    +0.000 A 
ATOM     11  C   UNL     1       6.417   2.994   0.000  0.00  0.00    +0.000 A 
ATOM     12  C   UNL     1       6.417   1.287   0.000  0.00  0.00    +0.000 A 
ATOM     13  C   UNL     1       5.669   1.711   0.000  0.00  0.00    +0.000 A 
BRANCH   6  15
ATOM     14  O   UNL     1      11.441   4.203   0.000  0.00  0.00    +0.000 OA
ATOM     15  C   UNL     1       9.297   2.966   0.000  0.00  0.00    +0.000 A 
ATOM     16  C   UNL     1      10.012   2.553   0.000  0.00  0.00    +0.000 A 
ATOM     17  C   UNL     1       9.297   3.791   0.000  0.00  0.00    +0.000 A 
ATOM     18  C   UNL     1      10.726   2.966   0.000  0.00  0.00    +0.000 A 
ATOM     19  C   UNL     1      10.012   4.203   0.000  0.00  0.00    +0.000 A 
ATOM     20  C   UNL     1      10.726   3.791   0.000  0.00  0.00    +0.000 A 
ENDBRANCH   6  15
BRANCH   9  21
ATOM     21  O   UNL     1       4.956   2.986   0.000  0.00  0.00    +0.000 OA
BRANCH  21  30
ATOM     22  O   UNL     1       3.527   2.991   0.000  0.00  0.00    +0.000 OA
ATOM     23  O   UNL     1       3.518   0.516   0.000  0.00  0.00    +0.000 OA
ATOM     24  O   UNL     1       2.092   1.347   0.000  0.00  0.00    +0.000 OA
ATOM     25  O   UNL     1       4.950   1.336   0.000  0.00  0.00    +0.000 OA
ATOM     26  C   UNL     1       3.521   1.341   0.000  0.00  0.00    +0.000 C 
ATOM     27  C   UNL     1       2.808   1.757   0.000  0.00  0.00    +0.000 C 
ATOM     28  C   UNL     1       4.237   1.751   0.000  0.00  0.00    +0.000 C 
ATOM     29  C   UNL     1       2.811   2.582   0.000  0.00  0.00    +0.000 C 
ATOM     30  C   UNL     1       4.240   2.576   0.000  0.00  0.00    +0.000 C 
ATOM     31  C   UNL     1       2.098   2.997   0.000  0.00  0.00    +0.000 C 
ENDBRANCH  21  30
ENDBRANCH   9  21
ENDBRANCH   1   5
BRANCH   1  40
ATOM     32  O   UNL     1       8.583   0.078   0.000  0.00  0.00    +0.000 OA
ATOM     33  O   UNL     1       9.297  -1.984   0.000  0.00  0.00    +0.000 OA
ATOM     34  O   UNL     1      10.726  -1.159   0.000  0.00  0.00    +0.000 OA
ATOM     35  O   UNL     1      10.726   0.491   0.000  0.00  0.00    +0.000 OA
ATOM     36  C   UNL     1       8.583  -0.747   0.000  0.00  0.00    +0.000 C 
ATOM     37  C   UNL     1       9.297  -1.159   0.000  0.00  0.00    +0.000 C 
ATOM     38  C   UNL     1      10.012  -0.747   0.000  0.00  0.00    +0.000 C 
ATOM     39  C   UNL     1      10.012   0.078   0.000  0.00  0.00    +0.000 C 
ATOM     40  C   UNL     1       9.297   0.491   0.000  0.00  0.00    +0.000 C 
BRANCH  36  41
ATOM     41  C   UNL     1       7.869  -1.159   0.000  0.00  0.00    +0.000 C 
BRANCH  41  42
ATOM     42  O   UNL     1       7.869  -1.984   0.000  0.00  0.00    +0.000 OA
BRANCH  42  50
ATOM     43  O   UNL     1       6.440  -1.984   0.000  0.00  0.00    +0.000 OA
ATOM     44  O   UNL     1       6.440  -4.459   0.000  0.00  0.00    +0.000 OA
ATOM     45  O   UNL     1       7.869  -3.634   0.000  0.00  0.00    +0.000 OA
ATOM     46  C   UNL     1       5.725  -3.222   0.000  0.00  0.00    +0.000 C 
ATOM     47  C   UNL     1       6.440  -3.634   0.000  0.00  0.00    +0.000 C 
ATOM     48  C   UNL     1       5.725  -2.397   0.000  0.00  0.00    +0.000 C 
ATOM     49  C   UNL     1       7.154  -3.222   0.000  0.00  0.00    +0.000 C 
ATOM     50  C   UNL     1       7.154  -2.397   0.000  0.00  0.00    +0.000 C 
ATOM     51  C   UNL     1       5.011  -1.984   0.000  0.00  0.00    +0.000 C 
BRANCH  46  52
ATOM     52  O   UNL     1       5.011  -3.634   0.000  0.00  0.00    +0.000 OA
BRANCH  52  57
ATOM     53  O   UNL     1       4.296  -2.397   0.000  0.00  0.00    +0.000 OA
ATOM     54  O   UNL     1       3.582  -4.459   0.000  0.00  0.00    +0.000 OA
ATOM     55  O   UNL     1       2.153  -3.634   0.000  0.00  0.00    +0.000 OA
ATOM     56  O   UNL     1       2.153  -1.984   0.000  0.00  0.00    +0.000 OA
ATOM     57  C   UNL     1       4.296  -3.222   0.000  0.00  0.00    +0.000 C 
ATOM     58  C   UNL     1       3.582  -3.634   0.000  0.00  0.00    +0.000 C 
ATOM     59  C   UNL     1       2.867  -3.222   0.000  0.00  0.00    +0.000 C 
ATOM     60  C   UNL     1       2.867  -2.397   0.000  0.00  0.00    +0.000 C 
ATOM     61  C   UNL     1       3.582  -1.984   0.000  0.00  0.00    +0.000 C 
ATOM     62  C   UNL     1       3.582  -1.159   0.000  0.00  0.00    +0.000 C 
ENDBRANCH  52  57
ENDBRANCH  46  52
ENDBRANCH  42  50
ENDBRANCH  41  42
ENDBRANCH  36  41
ENDBRANCH   1  40
TORSDOF 10
