REMARK  Name = 44259847
REMARK  7 active torsions:
REMARK  status: ('A' for Active; 'I' for Inactive)
REMARK    1  A    between atoms: O_2  and  C_19
REMARK    2  A    between atoms: O_2  and  C_21
REMARK    3  A    between atoms: O_6  and  C_20
REMARK    4  A    between atoms: O_6  and  C_22
REMARK    5  A    between atoms: C_17  and  C_20
REMARK    6  A    between atoms: C_22  and  C_25
REMARK    7  A    between atoms: C_32  and  C_34
REMARK                            x       y       z     vdW  Elec       q    Type
REMARK                         _______ _______ _______ _____ _____    ______ ____
ROOT
ATOM      1  O   UNL     1       8.815   1.141   0.000  0.00  0.00    +0.000 OA
ATOM      2  O   UNL     1       5.906  -0.535   0.000  0.00  0.00    +0.000 OA
ATOM      3  O   UNL     1       5.925   1.155   0.000  0.00  0.00    +0.000 OA
ATOM      4  O   UNL     1       6.676   2.387   0.000  0.00  0.00    +0.000 OA
ATOM      5  O   UNL     1       8.108   3.206   0.000  0.00  0.00    +0.000 OA
ATOM      6  C   UNL     1       7.366  -0.561   0.000  0.00  0.00    +0.000 A 
ATOM      7  C   UNL     1       8.108  -0.128   0.000  0.00  0.00    +0.000 A 
ATOM      8  C   UNL     1       6.623  -0.128   0.000  0.00  0.00    +0.000 A 
ATOM      9  C   UNL     1       8.098   0.731   0.000  0.00  0.00    +0.000 A 
ATOM     10  C   UNL     1       7.386   1.146   0.000  0.00  0.00    +0.000 A 
ATOM     11  C   UNL     1       6.633   0.731   0.000  0.00  0.00    +0.000 A 
ATOM     12  C   UNL     1       7.389   1.971   0.000  0.00  0.00    +0.000 A 
ATOM     13  C   UNL     1       8.818   1.966   0.000  0.00  0.00    +0.000 A 
ATOM     14  C   UNL     1       8.105   2.381   0.000  0.00  0.00    +0.000 A 
ENDROOT
BRANCH  13  17
ATOM     15  O   UNL     1      11.675   1.955   0.000  0.00  0.00    +0.000 OA
ATOM     16  O   UNL     1      11.682   3.605   0.000  0.00  0.00    +0.000 OA
ATOM     17  C   UNL     1       9.534   2.376   0.000  0.00  0.00    +0.000 A 
ATOM     18  C   UNL     1      10.247   1.960   0.000  0.00  0.00    +0.000 A 
ATOM     19  C   UNL     1       9.537   3.201   0.000  0.00  0.00    +0.000 A 
ATOM     20  C   UNL     1      10.963   2.370   0.000  0.00  0.00    +0.000 A 
ATOM     21  C   UNL     1      10.253   3.610   0.000  0.00  0.00    +0.000 A 
ATOM     22  C   UNL     1      10.966   3.195   0.000  0.00  0.00    +0.000 A 
ENDBRANCH  13  17
BRANCH   6  23
ATOM     23  O   UNL     1       7.366  -1.386   0.000  0.00  0.00    +0.000 OA
BRANCH  23  32
ATOM     24  O   UNL     1       5.937  -1.386   0.000  0.00  0.00    +0.000 OA
ATOM     25  O   UNL     1       4.508  -3.036   0.000  0.00  0.00    +0.000 OA
ATOM     26  O   UNL     1       5.937  -3.861   0.000  0.00  0.00    +0.000 OA
ATOM     27  O   UNL     1       7.366  -3.036   0.000  0.00  0.00    +0.000 OA
ATOM     28  C   UNL     1       5.222  -2.623   0.000  0.00  0.00    +0.000 C 
ATOM     29  C   UNL     1       5.937  -3.036   0.000  0.00  0.00    +0.000 C 
ATOM     30  C   UNL     1       5.222  -1.798   0.000  0.00  0.00    +0.000 C 
ATOM     31  C   UNL     1       6.651  -2.623   0.000  0.00  0.00    +0.000 C 
ATOM     32  C   UNL     1       6.651  -1.798   0.000  0.00  0.00    +0.000 C 
BRANCH  30  33
ATOM     33  C   UNL     1       4.508  -1.386   0.000  0.00  0.00    +0.000 C 
BRANCH  33  34
ATOM     34  O   UNL     1       3.793  -1.798   0.000  0.00  0.00    +0.000 OA
BRANCH  34  36
ATOM     35  O   UNL     1       3.079  -0.561   0.000  0.00  0.00    +0.000 OA
ATOM     36  C   UNL     1       3.079  -1.386   0.000  0.00  0.00    +0.000 C 
BRANCH  36  37
ATOM     37  C   UNL     1       2.364  -1.798   0.000  0.00  0.00    +0.000 C 
ATOM     38  C   UNL     1       1.650  -1.386   0.000  0.00  0.00    +0.000 C 
ATOM     39  C   UNL     1       2.364  -2.623   0.000  0.00  0.00    +0.000 C 
ENDBRANCH  36  37
ENDBRANCH  34  36
ENDBRANCH  33  34
ENDBRANCH  30  33
ENDBRANCH  23  32
ENDBRANCH   6  23
TORSDOF 7
