REMARK  Name = 10495449
REMARK  3 active torsions:
REMARK  status: ('A' for Active; 'I' for Inactive)
REMARK    1  A    between atoms: O_2  and  C_15
REMARK    2  A    between atoms: C_6  and  C_12
REMARK    3  A    between atoms: C_14  and  C_17
REMARK                            x       y       z     vdW  Elec       q    Type
REMARK                         _______ _______ _______ _____ _____    ______ ____
ROOT
ATOM      1  O   UNL     1       5.688  -0.764   0.000  0.00  0.00    +0.000 OA
ATOM      2  O   UNL     1       4.236   1.740   0.000  0.00  0.00    +0.000 OA
ATOM      3  O   UNL     1       5.679   1.768   0.000  0.00  0.00    +0.000 OA
ATOM      4  C   UNL     1       6.436  -0.340   0.000  0.00  0.00    +0.000 C 
ATOM      5  C   UNL     1       6.436   0.519   0.000  0.00  0.00    +0.000 C 
ATOM      6  C   UNL     1       4.951   0.502   0.000  0.00  0.00    +0.000 A 
ATOM      7  C   UNL     1       4.951  -0.323   0.000  0.00  0.00    +0.000 A 
ATOM      8  C   UNL     1       5.688   0.943   0.000  0.00  0.00    +0.000 C 
ATOM      9  C   UNL     1       4.236  -0.735   0.000  0.00  0.00    +0.000 A 
ATOM     10  C   UNL     1       4.236   0.915   0.000  0.00  0.00    +0.000 A 
ATOM     11  C   UNL     1       3.522   0.502   0.000  0.00  0.00    +0.000 A 
ATOM     12  C   UNL     1       3.522  -0.323   0.000  0.00  0.00    +0.000 A 
ATOM     13  C   UNL     1       4.236  -1.560   0.000  0.00  0.00    +0.000 C 
ENDROOT
BRANCH   4  14
ATOM     14  C   UNL     1       7.149  -0.755   0.000  0.00  0.00    +0.000 A 
ATOM     15  C   UNL     1       7.865  -0.345   0.000  0.00  0.00    +0.000 A 
ATOM     16  C   UNL     1       7.146  -1.580   0.000  0.00  0.00    +0.000 A 
ATOM     17  C   UNL     1       8.578  -0.761   0.000  0.00  0.00    +0.000 A 
ATOM     18  C   UNL     1       7.859  -1.995   0.000  0.00  0.00    +0.000 A 
ATOM     19  C   UNL     1       8.575  -1.586   0.000  0.00  0.00    +0.000 A 
ENDBRANCH   4  14
BRANCH  12  20
ATOM     20  O   UNL     1       2.808  -0.735   0.000  0.00  0.00    +0.000 OA
ATOM     21  C   UNL     1       2.808  -1.560   0.000  0.00  0.00    +0.000 C 
ENDBRANCH  12  20
BRANCH  11  23
ATOM     22  O   UNL     1       2.093   0.502   0.000  0.00  0.00    +0.000 OA
ATOM     23  C   UNL     1       2.808   0.915   0.000  0.00  0.00    +0.000 C 
ENDBRANCH  11  23
TORSDOF 3
