REMARK  Name = 338286
REMARK  3 active torsions:
REMARK  status: ('A' for Active; 'I' for Inactive)
REMARK    1  A    between atoms: O_2  and  C_12
REMARK    2  A    between atoms: O_3  and  C_14
REMARK    3  A    between atoms: C_6  and  C_7
REMARK                            x       y       z     vdW  Elec       q    Type
REMARK                         _______ _______ _______ _____ _____    ______ ____
ROOT
ATOM      1  O   UNL     1       5.006  -2.048   0.000  0.00  0.00    +0.000 OA
ATOM      2  O   UNL     1       2.094  -2.068   0.000  0.00  0.00    +0.000 OA
ATOM      3  C   UNL     1       5.721  -0.811   0.000  0.00  0.00    +0.000 C 
ATOM      4  C   UNL     1       5.721  -1.636   0.000  0.00  0.00    +0.000 C 
ATOM      5  C   UNL     1       4.292  -0.811   0.000  0.00  0.00    +0.000 A 
ATOM      6  C   UNL     1       5.006  -0.398   0.000  0.00  0.00    +0.000 C 
ATOM      7  C   UNL     1       4.292  -1.636   0.000  0.00  0.00    +0.000 A 
ATOM      8  C   UNL     1       3.554  -0.370   0.000  0.00  0.00    +0.000 A 
ATOM      9  C   UNL     1       3.554  -2.077   0.000  0.00  0.00    +0.000 A 
ATOM     10  C   UNL     1       2.807  -1.653   0.000  0.00  0.00    +0.000 A 
ATOM     11  C   UNL     1       2.807  -0.794   0.000  0.00  0.00    +0.000 A 
ENDROOT
BRANCH   3  13
ATOM     12  O   UNL     1       8.579   0.839   0.000  0.00  0.00    +0.000 OA
ATOM     13  C   UNL     1       6.435  -0.398   0.000  0.00  0.00    +0.000 A 
ATOM     14  C   UNL     1       6.435   0.427   0.000  0.00  0.00    +0.000 A 
ATOM     15  C   UNL     1       7.150  -0.811   0.000  0.00  0.00    +0.000 A 
ATOM     16  C   UNL     1       7.150   0.839   0.000  0.00  0.00    +0.000 A 
ATOM     17  C   UNL     1       7.864  -0.398   0.000  0.00  0.00    +0.000 A 
ATOM     18  C   UNL     1       7.864   0.427   0.000  0.00  0.00    +0.000 A 
BRANCH  14  19
ATOM     19  O   UNL     1       5.721   0.839   0.000  0.00  0.00    +0.000 OA
ATOM     20  C   UNL     1       5.721   1.664   0.000  0.00  0.00    +0.000 C 
ENDBRANCH  14  19
BRANCH  16  21
ATOM     21  O   UNL     1       7.150   1.664   0.000  0.00  0.00    +0.000 OA
ATOM     22  C   UNL     1       7.864   2.077   0.000  0.00  0.00    +0.000 C 
ENDBRANCH  16  21
ENDBRANCH   3  13
TORSDOF 3
