REMARK  Name = 44257071
REMARK  7 active torsions:
REMARK  status: ('A' for Active; 'I' for Inactive)
REMARK    1  A    between atoms: O_2  and  C_17
REMARK    2  A    between atoms: O_2  and  C_23
REMARK    3  A    between atoms: C_16  and  C_21
REMARK    4  A    between atoms: C_19  and  C_28
REMARK    5  A    between atoms: C_25  and  C_29
REMARK    6  A    between atoms: C_29  and  C_32
REMARK    7  A    between atoms: C_36  and  C_37
REMARK                            x       y       z     vdW  Elec       q    Type
REMARK                         _______ _______ _______ _____ _____    ______ ____
ROOT
ATOM      1  O   UNL     1       4.958   1.101   0.000  0.00  0.00    +0.000 OA
ATOM      2  O   UNL     1       5.699   3.215   0.000  0.00  0.00    +0.000 OA
ATOM      3  O   UNL     1       7.853   1.095   0.000  0.00  0.00    +0.000 OA
ATOM      4  C   UNL     1       5.696   2.390   0.000  0.00  0.00    +0.000 C 
ATOM      5  C   UNL     1       4.952   1.960   0.000  0.00  0.00    +0.000 C 
ATOM      6  C   UNL     1       6.437   1.954   0.000  0.00  0.00    +0.000 C 
ATOM      7  C   UNL     1       6.424   1.095   0.000  0.00  0.00    +0.000 A 
ATOM      8  C   UNL     1       6.424  -0.555   0.000  0.00  0.00    +0.000 A 
ATOM      9  C   UNL     1       5.709   0.683   0.000  0.00  0.00    +0.000 A 
ATOM     10  C   UNL     1       7.138  -0.142   0.000  0.00  0.00    +0.000 A 
ATOM     11  C   UNL     1       7.138   0.683   0.000  0.00  0.00    +0.000 A 
ATOM     12  C   UNL     1       5.709  -0.142   0.000  0.00  0.00    +0.000 A 
ENDROOT
BRANCH   5  15
ATOM     13  O   UNL     1       2.094   1.949   0.000  0.00  0.00    +0.000 OA
ATOM     14  O   UNL     1       2.088   3.599   0.000  0.00  0.00    +0.000 OA
ATOM     15  C   UNL     1       4.236   2.370   0.000  0.00  0.00    +0.000 A 
ATOM     16  C   UNL     1       3.523   1.955   0.000  0.00  0.00    +0.000 A 
ATOM     17  C   UNL     1       4.233   3.195   0.000  0.00  0.00    +0.000 A 
ATOM     18  C   UNL     1       2.807   2.364   0.000  0.00  0.00    +0.000 A 
ATOM     19  C   UNL     1       3.517   3.605   0.000  0.00  0.00    +0.000 A 
ATOM     20  C   UNL     1       2.804   3.189   0.000  0.00  0.00    +0.000 A 
ENDBRANCH   5  15
BRANCH   8  21
ATOM     21  O   UNL     1       6.424  -1.380   0.000  0.00  0.00    +0.000 OA
BRANCH  21  30
ATOM     22  O   UNL     1       4.995  -1.380   0.000  0.00  0.00    +0.000 OA
ATOM     23  O   UNL     1       4.995  -3.855   0.000  0.00  0.00    +0.000 OA
ATOM     24  O   UNL     1       3.566  -3.030   0.000  0.00  0.00    +0.000 OA
ATOM     25  O   UNL     1       6.424  -3.030   0.000  0.00  0.00    +0.000 OA
ATOM     26  C   UNL     1       4.995  -3.030   0.000  0.00  0.00    +0.000 C 
ATOM     27  C   UNL     1       4.280  -2.617   0.000  0.00  0.00    +0.000 C 
ATOM     28  C   UNL     1       5.709  -2.617   0.000  0.00  0.00    +0.000 C 
ATOM     29  C   UNL     1       4.280  -1.792   0.000  0.00  0.00    +0.000 C 
ATOM     30  C   UNL     1       5.709  -1.792   0.000  0.00  0.00    +0.000 C 
BRANCH  29  32
ATOM     31  O   UNL     1       2.851  -1.792   0.000  0.00  0.00    +0.000 OA
ATOM     32  C   UNL     1       3.566  -1.380   0.000  0.00  0.00    +0.000 C 
ENDBRANCH  29  32
ENDBRANCH  21  30
ENDBRANCH   8  21
BRANCH  10  33
ATOM     33  C   UNL     1       7.853  -0.555   0.000  0.00  0.00    +0.000 C 
BRANCH  33  34
ATOM     34  C   UNL     1       8.567  -0.142   0.000  0.00  0.00    +0.000 C 
ATOM     35  C   UNL     1       9.282  -0.555   0.000  0.00  0.00    +0.000 C 
BRANCH  35  37
ATOM     36  O   UNL     1      12.139   1.095   0.000  0.00  0.00    +0.000 OA
ATOM     37  C   UNL     1       9.996  -0.142   0.000  0.00  0.00    +0.000 A 
ATOM     38  C   UNL     1      10.710  -0.555   0.000  0.00  0.00    +0.000 A 
ATOM     39  C   UNL     1       9.996   0.683   0.000  0.00  0.00    +0.000 A 
ATOM     40  C   UNL     1      11.425  -0.142   0.000  0.00  0.00    +0.000 A 
ATOM     41  C   UNL     1      10.710   1.095   0.000  0.00  0.00    +0.000 A 
ATOM     42  C   UNL     1      11.425   0.683   0.000  0.00  0.00    +0.000 A 
ENDBRANCH  35  37
ENDBRANCH  33  34
ENDBRANCH  10  33
TORSDOF 7
