REMARK  Name = 131837226
REMARK  4 active torsions:
REMARK  status: ('A' for Active; 'I' for Inactive)
REMARK    1  A    between atoms: S_1  and  O_6
REMARK    2  A    between atoms: O_4  and  C_16
REMARK    3  A    between atoms: O_6  and  C_24
REMARK    4  A    between atoms: C_10  and  C_12
REMARK                            x       y       z     vdW  Elec       q    Type
REMARK                         _______ _______ _______ _____ _____    ______ ____
ROOT
ATOM      1  O   UNL     1       5.006  -0.468   0.000  0.00  0.00    +0.000 OA
ATOM      2  O   UNL     1       5.006   2.007   0.000  0.00  0.00    +0.000 OA
ATOM      3  O   UNL     1       2.094  -0.488   0.000  0.00  0.00    +0.000 OA
ATOM      4  C   UNL     1       5.721  -0.055   0.000  0.00  0.00    +0.000 C 
ATOM      5  C   UNL     1       5.721   0.770   0.000  0.00  0.00    +0.000 C 
ATOM      6  C   UNL     1       4.292   0.770   0.000  0.00  0.00    +0.000 A 
ATOM      7  C   UNL     1       4.292  -0.055   0.000  0.00  0.00    +0.000 A 
ATOM      8  C   UNL     1       5.006   1.182   0.000  0.00  0.00    +0.000 C 
ATOM      9  C   UNL     1       3.554  -0.496   0.000  0.00  0.00    +0.000 A 
ATOM     10  C   UNL     1       3.554   1.211   0.000  0.00  0.00    +0.000 A 
ATOM     11  C   UNL     1       2.807  -0.072   0.000  0.00  0.00    +0.000 A 
ATOM     12  C   UNL     1       2.807   0.787   0.000  0.00  0.00    +0.000 A 
ENDROOT
BRANCH   4  13
ATOM     13  C   UNL     1       6.435  -0.468   0.000  0.00  0.00    +0.000 A 
ATOM     14  C   UNL     1       7.150  -0.055   0.000  0.00  0.00    +0.000 A 
ATOM     15  C   UNL     1       6.435  -1.293   0.000  0.00  0.00    +0.000 A 
ATOM     16  C   UNL     1       7.864  -0.468   0.000  0.00  0.00    +0.000 A 
ATOM     17  C   UNL     1       7.150  -1.705   0.000  0.00  0.00    +0.000 A 
ATOM     18  C   UNL     1       7.864  -1.293   0.000  0.00  0.00    +0.000 A 
BRANCH  18  19
ATOM     19  O   UNL     1       8.579  -1.705   0.000  0.00  0.00    +0.000 OA
BRANCH  19  20
ATOM     20  S   UNL     1       9.293  -1.293   0.000  0.00  0.00    +0.000 S 
ATOM     21  O   UNL     1      10.008  -0.880   0.000  0.00  0.00    +0.000 OA
ATOM     22  O   UNL     1       9.706  -2.007   0.000  0.00  0.00    +0.000 OA
ATOM     23  O   UNL     1       8.881  -0.578   0.000  0.00  0.00    +0.000 OA
ENDBRANCH  19  20
ENDBRANCH  18  19
ENDBRANCH   4  13
BRANCH   9  24
ATOM     24  O   UNL     1       3.564  -1.321   0.000  0.00  0.00    +0.000 OA
ATOM     25  C   UNL     1       2.854  -1.742   0.000  0.00  0.00    +0.000 C 
ENDBRANCH   9  24
TORSDOF 4
