REMARK  Name = 15726099
REMARK  5 active torsions:
REMARK  status: ('A' for Active; 'I' for Inactive)
REMARK    1  A    between atoms: O_2  and  C_10
REMARK    2  A    between atoms: O_3  and  C_12
REMARK    3  A    between atoms: O_6  and  C_21
REMARK    4  A    between atoms: C_8  and  C_13
REMARK    5  A    between atoms: C_16  and  C_20
REMARK                            x       y       z     vdW  Elec       q    Type
REMARK                         _______ _______ _______ _____ _____    ______ ____
ROOT
ATOM      1  O   UNL     1       6.674  -1.461   0.000  0.00  0.00    +0.000 OA
ATOM      2  O   UNL     1       6.665   1.071   0.000  0.00  0.00    +0.000 OA
ATOM      3  C   UNL     1       4.508  -0.195   0.000  0.00  0.00    +0.000 A 
ATOM      4  C   UNL     1       5.937  -0.195   0.000  0.00  0.00    +0.000 A 
ATOM      5  C   UNL     1       5.222   0.218   0.000  0.00  0.00    +0.000 A 
ATOM      6  C   UNL     1       5.937  -1.020   0.000  0.00  0.00    +0.000 A 
ATOM      7  C   UNL     1       4.508  -1.020   0.000  0.00  0.00    +0.000 A 
ATOM      8  C   UNL     1       5.222  -1.432   0.000  0.00  0.00    +0.000 A 
ATOM      9  C   UNL     1       6.674   0.246   0.000  0.00  0.00    +0.000 A 
ATOM     10  C   UNL     1       7.422  -1.037   0.000  0.00  0.00    +0.000 A 
ATOM     11  C   UNL     1       7.422  -0.178   0.000  0.00  0.00    +0.000 A 
ENDROOT
BRANCH   3  14
ATOM     12  O   UNL     1       2.364   0.218   0.000  0.00  0.00    +0.000 OA
ATOM     13  O   UNL     1       4.508   1.455   0.000  0.00  0.00    +0.000 OA
ATOM     14  C   UNL     1       3.793   0.218   0.000  0.00  0.00    +0.000 A 
ATOM     15  C   UNL     1       3.793   1.043   0.000  0.00  0.00    +0.000 A 
ATOM     16  C   UNL     1       3.079  -0.195   0.000  0.00  0.00    +0.000 A 
ATOM     17  C   UNL     1       3.079   1.455   0.000  0.00  0.00    +0.000 A 
ATOM     18  C   UNL     1       2.364   1.043   0.000  0.00  0.00    +0.000 A 
ATOM     19  C   UNL     1       1.650   1.455   0.000  0.00  0.00    +0.000 C 
BRANCH  17  20
ATOM     20  O   UNL     1       3.079   2.280   0.000  0.00  0.00    +0.000 OA
ATOM     21  C   UNL     1       2.364   2.693   0.000  0.00  0.00    +0.000 C 
ENDBRANCH  17  20
ENDBRANCH   3  14
BRANCH  10  22
ATOM     22  C   UNL     1       8.135  -1.452   0.000  0.00  0.00    +0.000 A 
ATOM     23  C   UNL     1       8.132  -2.277   0.000  0.00  0.00    +0.000 A 
ATOM     24  C   UNL     1       8.851  -1.043   0.000  0.00  0.00    +0.000 A 
ATOM     25  C   UNL     1       8.844  -2.693   0.000  0.00  0.00    +0.000 A 
ATOM     26  C   UNL     1       9.564  -1.458   0.000  0.00  0.00    +0.000 A 
ATOM     27  C   UNL     1       9.560  -2.283   0.000  0.00  0.00    +0.000 A 
ENDBRANCH  10  22
BRANCH   5  28
ATOM     28  O   UNL     1       5.222   1.043   0.000  0.00  0.00    +0.000 OA
ATOM     29  C   UNL     1       5.937   1.455   0.000  0.00  0.00    +0.000 C 
ENDBRANCH   5  28
BRANCH   7  30
ATOM     30  O   UNL     1       3.793  -1.432   0.000  0.00  0.00    +0.000 OA
ATOM     31  C   UNL     1       3.793  -2.257   0.000  0.00  0.00    +0.000 C 
ENDBRANCH   7  30
TORSDOF 5
