REMARK  Name = 44258336
REMARK  12 active torsions:
REMARK  status: ('A' for Active; 'I' for Inactive)
REMARK    1  A    between atoms: O_2  and  C_18
REMARK    2  A    between atoms: O_2  and  C_23
REMARK    3  A    between atoms: O_9  and  C_30
REMARK    4  A    between atoms: O_9  and  C_41
REMARK    5  A    between atoms: O_10  and  C_32
REMARK    6  A    between atoms: O_16  and  C_53
REMARK    7  A    between atoms: C_20  and  C_29
REMARK    8  A    between atoms: C_22  and  C_28
REMARK    9  A    between atoms: C_27  and  C_30
REMARK   10  A    between atoms: C_39  and  C_42
REMARK   11  A    between atoms: C_41  and  C_43
REMARK   12  A    between atoms: C_46  and  C_50
REMARK                            x       y       z     vdW  Elec       q    Type
REMARK                         _______ _______ _______ _____ _____    ______ ____
ROOT
ATOM      1  O   UNL     1      11.381   1.650   0.000  0.00  0.00    +0.000 OA
ATOM      2  O   UNL     1       9.238   0.412   0.000  0.00  0.00    +0.000 OA
ATOM      3  O   UNL     1       9.238   2.062   0.000  0.00  0.00    +0.000 OA
ATOM      4  C   UNL     1      10.667   0.412   0.000  0.00  0.00    +0.000 C 
ATOM      5  C   UNL     1       9.952   0.825   0.000  0.00  0.00    +0.000 C 
ATOM      6  C   UNL     1      11.381   0.825   0.000  0.00  0.00    +0.000 C 
ATOM      7  C   UNL     1       9.952   1.650   0.000  0.00  0.00    +0.000 C 
ATOM      8  C   UNL     1      10.667   2.062   0.000  0.00  0.00    +0.000 C 
ENDROOT
BRANCH   6  12
ATOM      9  O   UNL     1      12.810   1.650   0.000  0.00  0.00    +0.000 OA
ATOM     10  O   UNL     1      14.262  -0.854   0.000  0.00  0.00    +0.000 OA
ATOM     11  O   UNL     1      14.252   1.679   0.000  0.00  0.00    +0.000 OA
ATOM     12  C   UNL     1      12.096   0.412   0.000  0.00  0.00    +0.000 A 
ATOM     13  C   UNL     1      12.810   0.825   0.000  0.00  0.00    +0.000 A 
ATOM     14  C   UNL     1      12.096  -0.412   0.000  0.00  0.00    +0.000 A 
ATOM     15  C   UNL     1      13.524   0.412   0.000  0.00  0.00    +0.000 A 
ATOM     16  C   UNL     1      12.810  -0.825   0.000  0.00  0.00    +0.000 A 
ATOM     17  C   UNL     1      13.524  -0.412   0.000  0.00  0.00    +0.000 A 
ATOM     18  C   UNL     1      14.262   0.854   0.000  0.00  0.00    +0.000 A 
ATOM     19  C   UNL     1      15.010   0.430   0.000  0.00  0.00    +0.000 A 
ATOM     20  C   UNL     1      15.010  -0.430   0.000  0.00  0.00    +0.000 A 
BRANCH  20  22
ATOM     21  O   UNL     1      17.861  -2.091   0.000  0.00  0.00    +0.000 OA
ATOM     22  C   UNL     1      15.722  -0.845   0.000  0.00  0.00    +0.000 A 
ATOM     23  C   UNL     1      15.719  -1.670   0.000  0.00  0.00    +0.000 A 
ATOM     24  C   UNL     1      16.439  -0.435   0.000  0.00  0.00    +0.000 A 
ATOM     25  C   UNL     1      16.432  -2.085   0.000  0.00  0.00    +0.000 A 
ATOM     26  C   UNL     1      17.151  -0.850   0.000  0.00  0.00    +0.000 A 
ATOM     27  C   UNL     1      17.148  -1.675   0.000  0.00  0.00    +0.000 A 
ENDBRANCH  20  22
BRANCH  14  28
ATOM     28  O   UNL     1      11.381  -0.825   0.000  0.00  0.00    +0.000 OA
ATOM     29  C   UNL     1      11.381  -1.650   0.000  0.00  0.00    +0.000 C 
ENDBRANCH  14  28
ENDBRANCH   6  12
BRANCH   8  30
ATOM     30  C   UNL     1      10.667   2.888   0.000  0.00  0.00    +0.000 C 
ATOM     31  C   UNL     1      11.381   3.300   0.000  0.00  0.00    +0.000 C 
ENDBRANCH   8  30
BRANCH   4  32
ATOM     32  O   UNL     1      10.667  -0.412   0.000  0.00  0.00    +0.000 OA
BRANCH  32  37
ATOM     33  O   UNL     1       9.238  -0.412   0.000  0.00  0.00    +0.000 OA
ATOM     34  O   UNL     1      10.667  -2.062   0.000  0.00  0.00    +0.000 OA
ATOM     35  O   UNL     1       9.238  -2.888   0.000  0.00  0.00    +0.000 OA
ATOM     36  O   UNL     1       7.809  -2.062   0.000  0.00  0.00    +0.000 OA
ATOM     37  C   UNL     1       9.952  -0.825   0.000  0.00  0.00    +0.000 C 
ATOM     38  C   UNL     1       9.952  -1.650   0.000  0.00  0.00    +0.000 C 
ATOM     39  C   UNL     1       9.238  -2.062   0.000  0.00  0.00    +0.000 C 
ATOM     40  C   UNL     1       8.523  -1.650   0.000  0.00  0.00    +0.000 C 
ATOM     41  C   UNL     1       8.523  -0.825   0.000  0.00  0.00    +0.000 C 
BRANCH  41  42
ATOM     42  C   UNL     1       7.809  -0.412   0.000  0.00  0.00    +0.000 C 
BRANCH  42  43
ATOM     43  O   UNL     1       7.094  -0.825   0.000  0.00  0.00    +0.000 OA
BRANCH  43  45
ATOM     44  O   UNL     1       6.380   0.412   0.000  0.00  0.00    +0.000 OA
ATOM     45  C   UNL     1       6.380  -0.412   0.000  0.00  0.00    +0.000 C 
BRANCH  45  46
ATOM     46  C   UNL     1       5.665  -0.825   0.000  0.00  0.00    +0.000 C 
ATOM     47  C   UNL     1       4.951  -0.412   0.000  0.00  0.00    +0.000 C 
BRANCH  47  49
ATOM     48  O   UNL     1       2.093  -2.062   0.000  0.00  0.00    +0.000 OA
ATOM     49  C   UNL     1       4.236  -0.825   0.000  0.00  0.00    +0.000 A 
ATOM     50  C   UNL     1       4.236  -1.650   0.000  0.00  0.00    +0.000 A 
ATOM     51  C   UNL     1       3.522  -0.412   0.000  0.00  0.00    +0.000 A 
ATOM     52  C   UNL     1       3.522  -2.062   0.000  0.00  0.00    +0.000 A 
ATOM     53  C   UNL     1       2.808  -0.825   0.000  0.00  0.00    +0.000 A 
ATOM     54  C   UNL     1       2.808  -1.650   0.000  0.00  0.00    +0.000 A 
BRANCH  52  55
ATOM     55  O   UNL     1       3.522  -2.888   0.000  0.00  0.00    +0.000 OA
ATOM     56  C   UNL     1       2.808  -3.300   0.000  0.00  0.00    +0.000 C 
ENDBRANCH  52  55
ENDBRANCH  47  49
ENDBRANCH  45  46
ENDBRANCH  43  45
ENDBRANCH  42  43
ENDBRANCH  41  42
ENDBRANCH  32  37
ENDBRANCH   4  32
TORSDOF 12
