REMARK  Name = 44257194
REMARK  3 active torsions:
REMARK  status: ('A' for Active; 'I' for Inactive)
REMARK    1  A    between atoms: O_3  and  C_18
REMARK    2  A    between atoms: O_5  and  C_20
REMARK    3  A    between atoms: C_6  and  C_10
REMARK                            x       y       z     vdW  Elec       q    Type
REMARK                         _______ _______ _______ _____ _____    ______ ____
ROOT
ATOM      1  O   UNL     1       5.006  -0.145   0.000  0.00  0.00    +0.000 OA
ATOM      2  O   UNL     1       3.564   2.359   0.000  0.00  0.00    +0.000 OA
ATOM      3  O   UNL     1       2.094  -0.165   0.000  0.00  0.00    +0.000 OA
ATOM      4  C   UNL     1       5.721   0.268   0.000  0.00  0.00    +0.000 C 
ATOM      5  C   UNL     1       5.721   1.093   0.000  0.00  0.00    +0.000 C 
ATOM      6  C   UNL     1       5.006   1.505   0.000  0.00  0.00    +0.000 C 
ATOM      7  C   UNL     1       4.292   1.093   0.000  0.00  0.00    +0.000 A 
ATOM      8  C   UNL     1       4.292   0.268   0.000  0.00  0.00    +0.000 A 
ATOM      9  C   UNL     1       3.554   1.534   0.000  0.00  0.00    +0.000 A 
ATOM     10  C   UNL     1       3.554  -0.173   0.000  0.00  0.00    +0.000 A 
ATOM     11  C   UNL     1       2.807   1.110   0.000  0.00  0.00    +0.000 A 
ATOM     12  C   UNL     1       2.807   0.251   0.000  0.00  0.00    +0.000 A 
ENDROOT
BRANCH   4  13
ATOM     13  C   UNL     1       6.435  -0.145   0.000  0.00  0.00    +0.000 A 
ATOM     14  C   UNL     1       6.435  -0.970   0.000  0.00  0.00    +0.000 A 
ATOM     15  C   UNL     1       7.150   0.268   0.000  0.00  0.00    +0.000 A 
ATOM     16  C   UNL     1       7.150  -1.382   0.000  0.00  0.00    +0.000 A 
ATOM     17  C   UNL     1       7.864  -0.145   0.000  0.00  0.00    +0.000 A 
ATOM     18  C   UNL     1       7.864  -0.970   0.000  0.00  0.00    +0.000 A 
BRANCH  16  19
ATOM     19  O   UNL     1       7.150  -2.207   0.000  0.00  0.00    +0.000 OA
ATOM     20  C   UNL     1       6.435  -2.620   0.000  0.00  0.00    +0.000 C 
ENDBRANCH  16  19
BRANCH  18  21
ATOM     21  O   UNL     1       8.579  -1.382   0.000  0.00  0.00    +0.000 OA
ATOM     22  C   UNL     1       9.293  -0.970   0.000  0.00  0.00    +0.000 C 
ENDBRANCH  18  21
ENDBRANCH   4  13
TORSDOF 3
