REMARK  Name = 44257190
REMARK  3 active torsions:
REMARK  status: ('A' for Active; 'I' for Inactive)
REMARK    1  A    between atoms: O_2  and  C_12
REMARK    2  A    between atoms: O_2  and  C_19
REMARK    3  A    between atoms: C_17  and  C_21
REMARK                            x       y       z     vdW  Elec       q    Type
REMARK                         _______ _______ _______ _____ _____    ______ ____
ROOT
ATOM      1  O   UNL     1       6.403  -1.175   0.000  0.00  0.00    +0.000 OA
ATOM      2  O   UNL     1       3.522  -1.147   0.000  0.00  0.00    +0.000 OA
ATOM      3  C   UNL     1       7.150   0.108   0.000  0.00  0.00    +0.000 C 
ATOM      4  C   UNL     1       6.403   0.532   0.000  0.00  0.00    +0.000 C 
ATOM      5  C   UNL     1       7.150  -0.752   0.000  0.00  0.00    +0.000 C 
ATOM      6  C   UNL     1       5.665   0.091   0.000  0.00  0.00    +0.000 A 
ATOM      7  C   UNL     1       4.951   0.503   0.000  0.00  0.00    +0.000 A 
ATOM      8  C   UNL     1       5.665  -0.734   0.000  0.00  0.00    +0.000 A 
ATOM      9  C   UNL     1       4.236   0.091   0.000  0.00  0.00    +0.000 A 
ATOM     10  C   UNL     1       4.951  -1.147   0.000  0.00  0.00    +0.000 A 
ATOM     11  C   UNL     1       4.236  -0.734   0.000  0.00  0.00    +0.000 A 
ENDROOT
BRANCH   5  14
ATOM     12  O   UNL     1       8.570  -3.232   0.000  0.00  0.00    +0.000 OA
ATOM     13  O   UNL     1      10.002  -2.413   0.000  0.00  0.00    +0.000 OA
ATOM     14  C   UNL     1       7.863  -1.167   0.000  0.00  0.00    +0.000 A 
ATOM     15  C   UNL     1       7.860  -1.992   0.000  0.00  0.00    +0.000 A 
ATOM     16  C   UNL     1       8.579  -0.757   0.000  0.00  0.00    +0.000 A 
ATOM     17  C   UNL     1       8.573  -2.407   0.000  0.00  0.00    +0.000 A 
ATOM     18  C   UNL     1       9.292  -1.172   0.000  0.00  0.00    +0.000 A 
ATOM     19  C   UNL     1       9.289  -1.997   0.000  0.00  0.00    +0.000 A 
ENDBRANCH   5  14
BRANCH   7  20
ATOM     20  O   UNL     1       4.951   1.328   0.000  0.00  0.00    +0.000 OA
BRANCH  20  27
ATOM     21  O   UNL     1       4.236   2.566   0.000  0.00  0.00    +0.000 OA
ATOM     22  O   UNL     1       3.522   0.503   0.000  0.00  0.00    +0.000 OA
ATOM     23  O   UNL     1       2.093   1.328   0.000  0.00  0.00    +0.000 OA
ATOM     24  O   UNL     1       2.093   2.978   0.000  0.00  0.00    +0.000 OA
ATOM     25  C   UNL     1       3.522   1.328   0.000  0.00  0.00    +0.000 C 
ATOM     26  C   UNL     1       2.808   1.741   0.000  0.00  0.00    +0.000 C 
ATOM     27  C   UNL     1       4.236   1.741   0.000  0.00  0.00    +0.000 C 
ATOM     28  C   UNL     1       2.808   2.566   0.000  0.00  0.00    +0.000 C 
ATOM     29  C   UNL     1       3.522   2.978   0.000  0.00  0.00    +0.000 C 
ENDBRANCH  20  27
ENDBRANCH   7  20
TORSDOF 3
