REMARK  Name = 44257688
REMARK  10 active torsions:
REMARK  status: ('A' for Active; 'I' for Inactive)
REMARK    1  A    between atoms: O_11  and  C_33
REMARK    2  A    between atoms: O_11  and  C_40
REMARK    3  A    between atoms: C_19  and  C_27
REMARK    4  A    between atoms: C_22  and  C_29
REMARK    5  A    between atoms: C_24  and  C_33
REMARK    6  A    between atoms: C_38  and  C_42
REMARK    7  A    between atoms: C_40  and  C_41
REMARK    8  A    between atoms: C_41  and  C_43
REMARK    9  A    between atoms: C_43  and  C_44
REMARK   10  A    between atoms: C_44  and  C_50
REMARK                            x       y       z     vdW  Elec       q    Type
REMARK                         _______ _______ _______ _____ _____    ______ ____
ROOT
ATOM      1  O   UNL     1       7.117   1.543   0.000  0.00  0.00    +0.000 OA
ATOM      2  O   UNL     1       4.236   1.572   0.000  0.00  0.00    +0.000 OA
ATOM      3  O   UNL     1       5.665   4.047   0.000  0.00  0.00    +0.000 OA
ATOM      4  O   UNL     1       7.108   4.075   0.000  0.00  0.00    +0.000 OA
ATOM      5  C   UNL     1       5.665   1.572   0.000  0.00  0.00    +0.000 A 
ATOM      6  C   UNL     1       4.951   2.809   0.000  0.00  0.00    +0.000 A 
ATOM      7  C   UNL     1       4.951   1.984   0.000  0.00  0.00    +0.000 A 
ATOM      8  C   UNL     1       6.380   1.984   0.000  0.00  0.00    +0.000 A 
ATOM      9  C   UNL     1       5.665   3.222   0.000  0.00  0.00    +0.000 A 
ATOM     10  C   UNL     1       6.380   2.809   0.000  0.00  0.00    +0.000 A 
ATOM     11  C   UNL     1       7.117   3.250   0.000  0.00  0.00    +0.000 A 
ATOM     12  C   UNL     1       7.865   1.967   0.000  0.00  0.00    +0.000 A 
ATOM     13  C   UNL     1       7.865   2.826   0.000  0.00  0.00    +0.000 A 
ENDROOT
BRANCH   6  18
ATOM     14  O   UNL     1       3.522   2.809   0.000  0.00  0.00    +0.000 OA
ATOM     15  O   UNL     1       4.951   4.459   0.000  0.00  0.00    +0.000 OA
ATOM     16  O   UNL     1       3.522   5.284   0.000  0.00  0.00    +0.000 OA
ATOM     17  O   UNL     1       2.093   4.459   0.000  0.00  0.00    +0.000 OA
ATOM     18  C   UNL     1       4.236   3.222   0.000  0.00  0.00    +0.000 C 
ATOM     19  C   UNL     1       4.236   4.047   0.000  0.00  0.00    +0.000 C 
ATOM     20  C   UNL     1       3.522   4.459   0.000  0.00  0.00    +0.000 C 
ATOM     21  C   UNL     1       2.808   4.047   0.000  0.00  0.00    +0.000 C 
ATOM     22  C   UNL     1       2.808   3.222   0.000  0.00  0.00    +0.000 C 
ATOM     23  C   UNL     1       2.093   2.809   0.000  0.00  0.00    +0.000 C 
ENDBRANCH   6  18
BRANCH   5  28
ATOM     24  O   UNL     1       6.380   0.334   0.000  0.00  0.00    +0.000 OA
ATOM     25  O   UNL     1       4.236   0.747   0.000  0.00  0.00    +0.000 OA
ATOM     26  O   UNL     1       4.236  -0.903   0.000  0.00  0.00    +0.000 OA
ATOM     27  O   UNL     1       5.665  -1.728   0.000  0.00  0.00    +0.000 OA
ATOM     28  C   UNL     1       5.665   0.747   0.000  0.00  0.00    +0.000 C 
ATOM     29  C   UNL     1       4.951   0.334   0.000  0.00  0.00    +0.000 C 
ATOM     30  C   UNL     1       4.951  -0.491   0.000  0.00  0.00    +0.000 C 
ATOM     31  C   UNL     1       5.665  -0.903   0.000  0.00  0.00    +0.000 C 
ATOM     32  C   UNL     1       6.380  -0.491   0.000  0.00  0.00    +0.000 C 
BRANCH  32  33
ATOM     33  C   UNL     1       7.094  -0.903   0.000  0.00  0.00    +0.000 C 
BRANCH  33  34
ATOM     34  O   UNL     1       7.094  -1.728   0.000  0.00  0.00    +0.000 OA
BRANCH  34  36
ATOM     35  O   UNL     1       8.523  -1.728   0.000  0.00  0.00    +0.000 OA
ATOM     36  C   UNL     1       7.809  -2.141   0.000  0.00  0.00    +0.000 C 
BRANCH  36  37
ATOM     37  C   UNL     1       7.809  -2.966   0.000  0.00  0.00    +0.000 C 
BRANCH  37  39
ATOM     38  O   UNL     1       8.111  -4.093   0.000  0.00  0.00    +0.000 OA
ATOM     39  C   UNL     1       8.523  -3.378   0.000  0.00  0.00    +0.000 C 
ATOM     40  C   UNL     1       8.936  -2.664   0.000  0.00  0.00    +0.000 C 
BRANCH  39  41
ATOM     41  C   UNL     1       9.238  -3.791   0.000  0.00  0.00    +0.000 C 
BRANCH  41  44
ATOM     42  O   UNL     1       9.952  -5.028   0.000  0.00  0.00    +0.000 OA
ATOM     43  O   UNL     1       8.523  -5.028   0.000  0.00  0.00    +0.000 OA
ATOM     44  C   UNL     1       9.238  -4.616   0.000  0.00  0.00    +0.000 C 
ENDBRANCH  41  44
ENDBRANCH  39  41
ENDBRANCH  37  39
ENDBRANCH  36  37
ENDBRANCH  34  36
ENDBRANCH  33  34
ENDBRANCH  32  33
ENDBRANCH   5  28
BRANCH  12  46
ATOM     45  O   UNL     1      10.716   0.306   0.000  0.00  0.00    +0.000 OA
ATOM     46  C   UNL     1       8.578   1.552   0.000  0.00  0.00    +0.000 A 
ATOM     47  C   UNL     1       9.294   1.961   0.000  0.00  0.00    +0.000 A 
ATOM     48  C   UNL     1       8.575   0.727   0.000  0.00  0.00    +0.000 A 
ATOM     49  C   UNL     1      10.007   1.546   0.000  0.00  0.00    +0.000 A 
ATOM     50  C   UNL     1       9.287   0.311   0.000  0.00  0.00    +0.000 A 
ATOM     51  C   UNL     1      10.004   0.721   0.000  0.00  0.00    +0.000 A 
ENDBRANCH  12  46
TORSDOF 10
