REMARK  Name = 10811599
REMARK  6 active torsions:
REMARK  status: ('A' for Active; 'I' for Inactive)
REMARK    1  A    between atoms: O_2  and  C_11
REMARK    2  A    between atoms: O_2  and  C_23
REMARK    3  A    between atoms: O_3  and  C_15
REMARK    4  A    between atoms: O_4  and  C_16
REMARK    5  A    between atoms: C_12  and  C_18
REMARK    6  A    between atoms: C_23  and  C_25
REMARK                            x       y       z     vdW  Elec       q    Type
REMARK                         _______ _______ _______ _____ _____    ______ ____
ROOT
ATOM      1  O   UNL     1       5.245   0.256   0.000  0.00  0.00    +0.000 OA
ATOM      2  O   UNL     1       3.793   2.760   0.000  0.00  0.00    +0.000 OA
ATOM      3  O   UNL     1       2.364   0.285   0.000  0.00  0.00    +0.000 OA
ATOM      4  O   UNL     1       5.236   2.788   0.000  0.00  0.00    +0.000 OA
ATOM      5  C   UNL     1       4.508   1.522   0.000  0.00  0.00    +0.000 A 
ATOM      6  C   UNL     1       4.508   0.697   0.000  0.00  0.00    +0.000 A 
ATOM      7  C   UNL     1       3.793   0.285   0.000  0.00  0.00    +0.000 A 
ATOM      8  C   UNL     1       5.993   0.680   0.000  0.00  0.00    +0.000 A 
ATOM      9  C   UNL     1       3.793   1.935   0.000  0.00  0.00    +0.000 A 
ATOM     10  C   UNL     1       5.245   1.963   0.000  0.00  0.00    +0.000 A 
ATOM     11  C   UNL     1       5.993   1.539   0.000  0.00  0.00    +0.000 A 
ATOM     12  C   UNL     1       3.079   1.522   0.000  0.00  0.00    +0.000 A 
ATOM     13  C   UNL     1       3.079   0.697   0.000  0.00  0.00    +0.000 A 
ENDROOT
BRANCH   8  14
ATOM     14  C   UNL     1       6.706   0.265   0.000  0.00  0.00    +0.000 A 
ATOM     15  C   UNL     1       6.703  -0.560   0.000  0.00  0.00    +0.000 A 
ATOM     16  C   UNL     1       7.422   0.674   0.000  0.00  0.00    +0.000 A 
ATOM     17  C   UNL     1       7.415  -0.976   0.000  0.00  0.00    +0.000 A 
ATOM     18  C   UNL     1       8.135   0.259   0.000  0.00  0.00    +0.000 A 
ATOM     19  C   UNL     1       8.132  -0.566   0.000  0.00  0.00    +0.000 A 
ENDBRANCH   8  14
BRANCH  11  20
ATOM     20  O   UNL     1       6.706   1.955   0.000  0.00  0.00    +0.000 OA
ATOM     21  C   UNL     1       6.703   2.780   0.000  0.00  0.00    +0.000 C 
ENDBRANCH  11  20
BRANCH  12  22
ATOM     22  O   UNL     1       2.364   1.935   0.000  0.00  0.00    +0.000 OA
ATOM     23  C   UNL     1       1.650   1.522   0.000  0.00  0.00    +0.000 C 
ENDBRANCH  12  22
BRANCH   7  24
ATOM     24  O   UNL     1       3.793  -0.540   0.000  0.00  0.00    +0.000 OA
BRANCH  24  26
ATOM     25  O   UNL     1       2.364  -0.540   0.000  0.00  0.00    +0.000 OA
ATOM     26  C   UNL     1       3.079  -0.953   0.000  0.00  0.00    +0.000 C 
BRANCH  26  27
ATOM     27  C   UNL     1       3.079  -1.778   0.000  0.00  0.00    +0.000 C 
ATOM     28  C   UNL     1       3.793  -2.190   0.000  0.00  0.00    +0.000 C 
ATOM     29  C   UNL     1       2.364  -2.190   0.000  0.00  0.00    +0.000 C 
ATOM     30  C   UNL     1       2.364  -3.015   0.000  0.00  0.00    +0.000 C 
ENDBRANCH  26  27
ENDBRANCH  24  26
ENDBRANCH   7  24
TORSDOF 6
