REMARK  Name = 42607943
REMARK  8 active torsions:
REMARK  status: ('A' for Active; 'I' for Inactive)
REMARK    1  A    between atoms: O_2  and  C_20
REMARK    2  A    between atoms: O_2  and  C_23
REMARK    3  A    between atoms: O_4  and  C_22
REMARK    4  A    between atoms: O_4  and  C_26
REMARK    5  A    between atoms: O_14  and  C_42
REMARK    6  A    between atoms: C_15  and  C_23
REMARK    7  A    between atoms: C_16  and  C_25
REMARK    8  A    between atoms: C_31  and  C_37
REMARK                            x       y       z     vdW  Elec       q    Type
REMARK                         _______ _______ _______ _____ _____    ______ ____
ROOT
ATOM      1  O   UNL     1       9.865   0.944   0.000  0.00  0.00    +0.000 OA
ATOM      2  O   UNL     1       6.971   0.938   0.000  0.00  0.00    +0.000 OA
ATOM      3  O   UNL     1       7.668   2.202   0.000  0.00  0.00    +0.000 OA
ATOM      4  C   UNL     1       8.400  -0.712   0.000  0.00  0.00    +0.000 A 
ATOM      5  C   UNL     1       9.114  -0.299   0.000  0.00  0.00    +0.000 A 
ATOM      6  C   UNL     1       7.686  -0.299   0.000  0.00  0.00    +0.000 A 
ATOM      7  C   UNL     1       9.114   0.526   0.000  0.00  0.00    +0.000 A 
ATOM      8  C   UNL     1       8.400   0.938   0.000  0.00  0.00    +0.000 A 
ATOM      9  C   UNL     1       9.872   1.803   0.000  0.00  0.00    +0.000 C 
ATOM     10  C   UNL     1       7.686   0.526   0.000  0.00  0.00    +0.000 A 
ATOM     11  C   UNL     1       9.128   2.233   0.000  0.00  0.00    +0.000 C 
ATOM     12  C   UNL     1       8.387   1.798   0.000  0.00  0.00    +0.000 C 
ATOM     13  C   UNL     1       9.829  -0.712   0.000  0.00  0.00    +0.000 C 
ATOM     14  C   UNL     1       6.971  -0.712   0.000  0.00  0.00    +0.000 C 
ENDROOT
BRANCH   9  15
ATOM     15  C   UNL     1      10.588   2.213   0.000  0.00  0.00    +0.000 A 
ATOM     16  C   UNL     1      10.591   3.038   0.000  0.00  0.00    +0.000 A 
ATOM     17  C   UNL     1      11.301   1.798   0.000  0.00  0.00    +0.000 A 
ATOM     18  C   UNL     1      11.307   3.448   0.000  0.00  0.00    +0.000 A 
ATOM     19  C   UNL     1      12.017   2.208   0.000  0.00  0.00    +0.000 A 
ATOM     20  C   UNL     1      12.020   3.033   0.000  0.00  0.00    +0.000 A 
BRANCH  20  21
ATOM     21  O   UNL     1      12.736   3.442   0.000  0.00  0.00    +0.000 OA
ATOM     22  C   UNL     1      12.739   4.267   0.000  0.00  0.00    +0.000 C 
ENDBRANCH  20  21
ENDBRANCH   9  15
BRANCH   4  23
ATOM     23  O   UNL     1       8.400  -1.537   0.000  0.00  0.00    +0.000 OA
BRANCH  23  32
ATOM     24  O   UNL     1       6.971  -1.537   0.000  0.00  0.00    +0.000 OA
ATOM     25  O   UNL     1       5.542  -3.187   0.000  0.00  0.00    +0.000 OA
ATOM     26  O   UNL     1       6.971  -4.012   0.000  0.00  0.00    +0.000 OA
ATOM     27  O   UNL     1       8.400  -3.187   0.000  0.00  0.00    +0.000 OA
ATOM     28  C   UNL     1       6.257  -1.949   0.000  0.00  0.00    +0.000 C 
ATOM     29  C   UNL     1       6.257  -2.774   0.000  0.00  0.00    +0.000 C 
ATOM     30  C   UNL     1       6.971  -3.187   0.000  0.00  0.00    +0.000 C 
ATOM     31  C   UNL     1       7.686  -2.774   0.000  0.00  0.00    +0.000 C 
ATOM     32  C   UNL     1       7.686  -1.949   0.000  0.00  0.00    +0.000 C 
BRANCH  28  33
ATOM     33  C   UNL     1       5.542  -1.537   0.000  0.00  0.00    +0.000 C 
BRANCH  33  34
ATOM     34  O   UNL     1       4.828  -1.949   0.000  0.00  0.00    +0.000 OA
BRANCH  34  40
ATOM     35  O   UNL     1       4.027  -0.716   0.000  0.00  0.00    +0.000 OA
ATOM     36  O   UNL     1       2.194  -1.811   0.000  0.00  0.00    +0.000 OA
ATOM     37  O   UNL     1       3.188  -2.679   0.000  0.00  0.00    +0.000 OA
ATOM     38  C   UNL     1       2.808  -1.259   0.000  0.00  0.00    +0.000 C 
ATOM     39  C   UNL     1       3.360  -1.872   0.000  0.00  0.00    +0.000 C 
ATOM     40  C   UNL     1       4.113  -1.537   0.000  0.00  0.00    +0.000 C 
ATOM     41  C   UNL     1       3.220  -0.545   0.000  0.00  0.00    +0.000 C 
BRANCH  38  43
ATOM     42  O   UNL     1       2.093  -0.021   0.000  0.00  0.00    +0.000 OA
ATOM     43  C   UNL     1       2.093  -0.847   0.000  0.00  0.00    +0.000 C 
ENDBRANCH  38  43
ENDBRANCH  34  40
ENDBRANCH  33  34
ENDBRANCH  28  33
ENDBRANCH  23  32
ENDBRANCH   4  23
TORSDOF 8
