REMARK  Name = 44257682
REMARK  7 active torsions:
REMARK  status: ('A' for Active; 'I' for Inactive)
REMARK    1  A    between atoms: O_1  and  C_16
REMARK    2  A    between atoms: O_1  and  C_21
REMARK    3  A    between atoms: O_6  and  C_24
REMARK    4  A    between atoms: O_6  and  C_34
REMARK    5  A    between atoms: C_18  and  C_26
REMARK    6  A    between atoms: C_20  and  C_27
REMARK    7  A    between atoms: C_36  and  C_39
REMARK                            x       y       z     vdW  Elec       q    Type
REMARK                         _______ _______ _______ _____ _____    ______ ____
ROOT
ATOM      1  O   UNL     1       5.937   0.462   0.000  0.00  0.00    +0.000 OA
ATOM      2  O   UNL     1       3.793  -0.776   0.000  0.00  0.00    +0.000 OA
ATOM      3  O   UNL     1       3.793   0.874   0.000  0.00  0.00    +0.000 OA
ATOM      4  C   UNL     1       5.222  -0.776   0.000  0.00  0.00    +0.000 C 
ATOM      5  C   UNL     1       4.508  -0.363   0.000  0.00  0.00    +0.000 C 
ATOM      6  C   UNL     1       5.937  -0.363   0.000  0.00  0.00    +0.000 C 
ATOM      7  C   UNL     1       4.508   0.462   0.000  0.00  0.00    +0.000 C 
ATOM      8  C   UNL     1       5.222   0.874   0.000  0.00  0.00    +0.000 C 
ENDROOT
BRANCH   6  13
ATOM      9  O   UNL     1       7.353   0.496   0.000  0.00  0.00    +0.000 OA
ATOM     10  O   UNL     1       5.937  -2.014   0.000  0.00  0.00    +0.000 OA
ATOM     11  O   UNL     1       8.795  -2.014   0.000  0.00  0.00    +0.000 OA
ATOM     12  O   UNL     1       9.541  -0.779   0.000  0.00  0.00    +0.000 OA
ATOM     13  C   UNL     1       6.651  -0.776   0.000  0.00  0.00    +0.000 A 
ATOM     14  C   UNL     1       7.366  -0.363   0.000  0.00  0.00    +0.000 A 
ATOM     15  C   UNL     1       6.651  -1.601   0.000  0.00  0.00    +0.000 A 
ATOM     16  C   UNL     1       8.080  -0.776   0.000  0.00  0.00    +0.000 A 
ATOM     17  C   UNL     1       7.366  -2.014   0.000  0.00  0.00    +0.000 A 
ATOM     18  C   UNL     1       8.080  -1.601   0.000  0.00  0.00    +0.000 A 
ATOM     19  C   UNL     1       8.831  -0.358   0.000  0.00  0.00    +0.000 A 
ATOM     20  C   UNL     1       8.093   0.931   0.000  0.00  0.00    +0.000 A 
ATOM     21  C   UNL     1       8.838   0.501   0.000  0.00  0.00    +0.000 A 
BRANCH  20  23
ATOM     22  O   UNL     1       8.081   4.231   0.000  0.00  0.00    +0.000 OA
ATOM     23  C   UNL     1       8.090   1.756   0.000  0.00  0.00    +0.000 A 
ATOM     24  C   UNL     1       8.803   2.171   0.000  0.00  0.00    +0.000 A 
ATOM     25  C   UNL     1       7.374   2.166   0.000  0.00  0.00    +0.000 A 
ATOM     26  C   UNL     1       8.800   2.996   0.000  0.00  0.00    +0.000 A 
ATOM     27  C   UNL     1       7.371   2.991   0.000  0.00  0.00    +0.000 A 
ATOM     28  C   UNL     1       8.084   3.406   0.000  0.00  0.00    +0.000 A 
ENDBRANCH  20  23
ENDBRANCH   6  13
BRANCH   8  30
ATOM     29  O   UNL     1       4.508   2.111   0.000  0.00  0.00    +0.000 OA
ATOM     30  C   UNL     1       5.222   1.699   0.000  0.00  0.00    +0.000 C 
ENDBRANCH   8  30
BRANCH   4  31
ATOM     31  O   UNL     1       5.222  -1.601   0.000  0.00  0.00    +0.000 OA
BRANCH  31  35
ATOM     32  O   UNL     1       3.793  -1.601   0.000  0.00  0.00    +0.000 OA
ATOM     33  O   UNL     1       5.222  -3.251   0.000  0.00  0.00    +0.000 OA
ATOM     34  O   UNL     1       3.793  -4.076   0.000  0.00  0.00    +0.000 OA
ATOM     35  C   UNL     1       4.508  -2.014   0.000  0.00  0.00    +0.000 C 
ATOM     36  C   UNL     1       4.508  -2.838   0.000  0.00  0.00    +0.000 C 
ATOM     37  C   UNL     1       3.793  -3.251   0.000  0.00  0.00    +0.000 C 
ATOM     38  C   UNL     1       3.079  -2.838   0.000  0.00  0.00    +0.000 C 
ATOM     39  C   UNL     1       3.079  -2.014   0.000  0.00  0.00    +0.000 C 
ATOM     40  C   UNL     1       2.364  -1.601   0.000  0.00  0.00    +0.000 C 
BRANCH  38  41
ATOM     41  O   UNL     1       2.364  -3.251   0.000  0.00  0.00    +0.000 OA
BRANCH  41  43
ATOM     42  O   UNL     1       3.079  -4.489   0.000  0.00  0.00    +0.000 OA
ATOM     43  C   UNL     1       2.364  -4.076   0.000  0.00  0.00    +0.000 C 
ATOM     44  C   UNL     1       1.650  -4.489   0.000  0.00  0.00    +0.000 C 
ENDBRANCH  41  43
ENDBRANCH  38  41
ENDBRANCH  31  35
ENDBRANCH   4  31
TORSDOF 7
