REMARK  Name = 44259486
REMARK  8 active torsions:
REMARK  status: ('A' for Active; 'I' for Inactive)
REMARK    1  A    between atoms: O_2  and  C_16
REMARK    2  A    between atoms: O_2  and  C_23
REMARK    3  A    between atoms: O_3  and  C_20
REMARK    4  A    between atoms: O_3  and  C_22
REMARK    5  A    between atoms: O_11  and  C_37
REMARK    6  A    between atoms: C_23  and  C_26
REMARK    7  A    between atoms: C_24  and  C_28
REMARK    8  A    between atoms: C_26  and  C_34
REMARK                            x       y       z     vdW  Elec       q    Type
REMARK                         _______ _______ _______ _____ _____    ______ ____
ROOT
ATOM      1  O   UNL     1       6.651   1.955   0.000  0.00  0.00    +0.000 OA
ATOM      2  O   UNL     1       4.508   0.717   0.000  0.00  0.00    +0.000 OA
ATOM      3  O   UNL     1       3.762   1.952   0.000  0.00  0.00    +0.000 OA
ATOM      4  O   UNL     1       5.212   4.487   0.000  0.00  0.00    +0.000 OA
ATOM      5  C   UNL     1       5.937   0.717   0.000  0.00  0.00    +0.000 A 
ATOM      6  C   UNL     1       6.651   1.130   0.000  0.00  0.00    +0.000 A 
ATOM      7  C   UNL     1       5.222   1.130   0.000  0.00  0.00    +0.000 A 
ATOM      8  C   UNL     1       5.222   1.955   0.000  0.00  0.00    +0.000 A 
ATOM      9  C   UNL     1       5.937   2.367   0.000  0.00  0.00    +0.000 A 
ATOM     10  C   UNL     1       4.472   2.373   0.000  0.00  0.00    +0.000 A 
ATOM     11  C   UNL     1       5.950   3.226   0.000  0.00  0.00    +0.000 A 
ATOM     12  C   UNL     1       4.465   3.232   0.000  0.00  0.00    +0.000 A 
ATOM     13  C   UNL     1       5.209   3.662   0.000  0.00  0.00    +0.000 A 
ENDROOT
BRANCH   6  16
ATOM     14  O   UNL     1       9.509   1.130   0.000  0.00  0.00    +0.000 OA
ATOM     15  O   UNL     1       9.509  -0.520   0.000  0.00  0.00    +0.000 OA
ATOM     16  C   UNL     1       7.366   0.717   0.000  0.00  0.00    +0.000 A 
ATOM     17  C   UNL     1       7.366  -0.108   0.000  0.00  0.00    +0.000 A 
ATOM     18  C   UNL     1       8.080   1.130   0.000  0.00  0.00    +0.000 A 
ATOM     19  C   UNL     1       8.080  -0.520   0.000  0.00  0.00    +0.000 A 
ATOM     20  C   UNL     1       8.795   0.717   0.000  0.00  0.00    +0.000 A 
ATOM     21  C   UNL     1       8.795  -0.108   0.000  0.00  0.00    +0.000 A 
BRANCH  19  22
ATOM     22  O   UNL     1       8.080  -1.345   0.000  0.00  0.00    +0.000 OA
ATOM     23  C   UNL     1       8.795  -1.758   0.000  0.00  0.00    +0.000 C 
ENDBRANCH  19  22
ENDBRANCH   6  16
BRANCH   5  24
ATOM     24  O   UNL     1       5.937  -0.108   0.000  0.00  0.00    +0.000 OA
BRANCH  24  32
ATOM     25  O   UNL     1       4.508  -0.108   0.000  0.00  0.00    +0.000 OA
ATOM     26  O   UNL     1       4.508  -2.583   0.000  0.00  0.00    +0.000 OA
ATOM     27  O   UNL     1       5.937  -1.758   0.000  0.00  0.00    +0.000 OA
ATOM     28  C   UNL     1       3.793  -1.345   0.000  0.00  0.00    +0.000 C 
ATOM     29  C   UNL     1       4.508  -1.758   0.000  0.00  0.00    +0.000 C 
ATOM     30  C   UNL     1       5.222  -1.345   0.000  0.00  0.00    +0.000 C 
ATOM     31  C   UNL     1       3.793  -0.520   0.000  0.00  0.00    +0.000 C 
ATOM     32  C   UNL     1       5.222  -0.520   0.000  0.00  0.00    +0.000 C 
ATOM     33  C   UNL     1       3.079  -0.108   0.000  0.00  0.00    +0.000 C 
BRANCH  28  34
ATOM     34  O   UNL     1       3.079  -1.758   0.000  0.00  0.00    +0.000 OA
BRANCH  34  36
ATOM     35  O   UNL     1       3.793  -2.995   0.000  0.00  0.00    +0.000 OA
ATOM     36  C   UNL     1       3.079  -2.583   0.000  0.00  0.00    +0.000 C 
BRANCH  36  37
ATOM     37  C   UNL     1       2.364  -2.995   0.000  0.00  0.00    +0.000 C 
BRANCH  37  40
ATOM     38  O   UNL     1       1.650  -4.233   0.000  0.00  0.00    +0.000 OA
ATOM     39  O   UNL     1       3.079  -4.233   0.000  0.00  0.00    +0.000 OA
ATOM     40  C   UNL     1       2.364  -3.820   0.000  0.00  0.00    +0.000 C 
ENDBRANCH  37  40
ENDBRANCH  36  37
ENDBRANCH  34  36
ENDBRANCH  28  34
ENDBRANCH  24  32
ENDBRANCH   5  24
TORSDOF 8
