REMARK  Name = 44257654
REMARK  2 active torsions:
REMARK  status: ('A' for Active; 'I' for Inactive)
REMARK    1  A    between atoms: C_10  and  C_14
REMARK    2  A    between atoms: C_23  and  C_25
REMARK                            x       y       z     vdW  Elec       q    Type
REMARK                         _______ _______ _______ _____ _____    ______ ____
ROOT
ATOM      1  O   UNL     1       6.674  -1.380   0.000  0.00  0.00    +0.000 OA
ATOM      2  O   UNL     1       5.222   1.124   0.000  0.00  0.00    +0.000 OA
ATOM      3  O   UNL     1       3.793  -1.351   0.000  0.00  0.00    +0.000 OA
ATOM      4  O   UNL     1       6.665   1.152   0.000  0.00  0.00    +0.000 OA
ATOM      5  C   UNL     1       4.508  -0.114   0.000  0.00  0.00    +0.000 A 
ATOM      6  C   UNL     1       5.222   0.299   0.000  0.00  0.00    +0.000 A 
ATOM      7  C   UNL     1       4.508  -0.939   0.000  0.00  0.00    +0.000 A 
ATOM      8  C   UNL     1       5.937  -0.114   0.000  0.00  0.00    +0.000 A 
ATOM      9  C   UNL     1       5.937  -0.939   0.000  0.00  0.00    +0.000 A 
ATOM     10  C   UNL     1       5.222  -1.351   0.000  0.00  0.00    +0.000 A 
ATOM     11  C   UNL     1       6.674   0.327   0.000  0.00  0.00    +0.000 A 
ATOM     12  C   UNL     1       7.422  -0.956   0.000  0.00  0.00    +0.000 A 
ATOM     13  C   UNL     1       7.422  -0.097   0.000  0.00  0.00    +0.000 A 
ENDROOT
BRANCH   5  18
ATOM     14  O   UNL     1       3.079  -0.114   0.000  0.00  0.00    +0.000 OA
ATOM     15  O   UNL     1       4.508   1.536   0.000  0.00  0.00    +0.000 OA
ATOM     16  O   UNL     1       3.079   2.361   0.000  0.00  0.00    +0.000 OA
ATOM     17  O   UNL     1       1.650   1.536   0.000  0.00  0.00    +0.000 OA
ATOM     18  C   UNL     1       3.793   0.299   0.000  0.00  0.00    +0.000 C 
ATOM     19  C   UNL     1       3.793   1.124   0.000  0.00  0.00    +0.000 C 
ATOM     20  C   UNL     1       3.079   1.536   0.000  0.00  0.00    +0.000 C 
ATOM     21  C   UNL     1       2.364   0.299   0.000  0.00  0.00    +0.000 C 
ATOM     22  C   UNL     1       2.364   1.124   0.000  0.00  0.00    +0.000 C 
ATOM     23  C   UNL     1       1.650  -0.114   0.000  0.00  0.00    +0.000 C 
ENDBRANCH   5  18
BRANCH  12  25
ATOM     24  O   UNL     1      10.273  -2.617   0.000  0.00  0.00    +0.000 OA
ATOM     25  C   UNL     1       8.135  -1.371   0.000  0.00  0.00    +0.000 A 
ATOM     26  C   UNL     1       8.851  -0.962   0.000  0.00  0.00    +0.000 A 
ATOM     27  C   UNL     1       8.132  -2.196   0.000  0.00  0.00    +0.000 A 
ATOM     28  C   UNL     1       9.564  -1.377   0.000  0.00  0.00    +0.000 A 
ATOM     29  C   UNL     1       8.844  -2.611   0.000  0.00  0.00    +0.000 A 
ATOM     30  C   UNL     1       9.560  -2.202   0.000  0.00  0.00    +0.000 A 
ENDBRANCH  12  25
TORSDOF 2
