REMARK  Name = 44257075
REMARK  8 active torsions:
REMARK  status: ('A' for Active; 'I' for Inactive)
REMARK    1  A    between atoms: O_2  and  C_15
REMARK    2  A    between atoms: O_2  and  C_18
REMARK    3  A    between atoms: O_3  and  C_13
REMARK    4  A    between atoms: O_3  and  C_29
REMARK    5  A    between atoms: C_17  and  C_21
REMARK    6  A    between atoms: C_19  and  C_23
REMARK    7  A    between atoms: C_29  and  C_35
REMARK    8  A    between atoms: C_36  and  C_37
REMARK                            x       y       z     vdW  Elec       q    Type
REMARK                         _______ _______ _______ _____ _____    ______ ____
ROOT
ATOM      1  O   UNL     1       5.665   0.874   0.000  0.00  0.00    +0.000 OA
ENDROOT
BRANCH   1   5
ATOM      2  O   UNL     1       6.380   2.936   0.000  0.00  0.00    +0.000 OA
ATOM      3  O   UNL     1       3.490   2.934   0.000  0.00  0.00    +0.000 OA
ATOM      4  O   UNL     1       4.941   5.469   0.000  0.00  0.00    +0.000 OA
ATOM      5  C   UNL     1       5.665   1.699   0.000  0.00  0.00    +0.000 C 
ATOM      6  C   UNL     1       6.380   2.111   0.000  0.00  0.00    +0.000 C 
ATOM      7  C   UNL     1       4.951   2.111   0.000  0.00  0.00    +0.000 C 
ATOM      8  C   UNL     1       4.951   2.936   0.000  0.00  0.00    +0.000 A 
ATOM      9  C   UNL     1       5.665   3.349   0.000  0.00  0.00    +0.000 A 
ATOM     10  C   UNL     1       4.200   3.355   0.000  0.00  0.00    +0.000 A 
ATOM     11  C   UNL     1       5.679   4.208   0.000  0.00  0.00    +0.000 A 
ATOM     12  C   UNL     1       4.194   4.214   0.000  0.00  0.00    +0.000 A 
ATOM     13  C   UNL     1       4.938   4.644   0.000  0.00  0.00    +0.000 A 
BRANCH   6  16
ATOM     14  O   UNL     1       7.809  -0.364   0.000  0.00  0.00    +0.000 OA
ATOM     15  O   UNL     1       9.238   0.461   0.000  0.00  0.00    +0.000 OA
ATOM     16  C   UNL     1       7.094   1.699   0.000  0.00  0.00    +0.000 A 
ATOM     17  C   UNL     1       7.094   0.874   0.000  0.00  0.00    +0.000 A 
ATOM     18  C   UNL     1       7.809   2.111   0.000  0.00  0.00    +0.000 A 
ATOM     19  C   UNL     1       7.809   0.461   0.000  0.00  0.00    +0.000 A 
ATOM     20  C   UNL     1       8.523   1.699   0.000  0.00  0.00    +0.000 A 
ATOM     21  C   UNL     1       8.523   0.874   0.000  0.00  0.00    +0.000 A 
ENDBRANCH   6  16
ENDBRANCH   1   5
BRANCH   1  27
ATOM     22  O   UNL     1       4.236   0.874   0.000  0.00  0.00    +0.000 OA
ATOM     23  O   UNL     1       5.665  -0.776   0.000  0.00  0.00    +0.000 OA
ATOM     24  O   UNL     1       2.808  -0.776   0.000  0.00  0.00    +0.000 OA
ATOM     25  C   UNL     1       4.236  -0.776   0.000  0.00  0.00    +0.000 C 
ATOM     26  C   UNL     1       4.951  -0.364   0.000  0.00  0.00    +0.000 C 
ATOM     27  C   UNL     1       4.951   0.461   0.000  0.00  0.00    +0.000 C 
ATOM     28  C   UNL     1       3.522  -0.364   0.000  0.00  0.00    +0.000 C 
ATOM     29  C   UNL     1       3.522   0.461   0.000  0.00  0.00    +0.000 C 
BRANCH  29  31
ATOM     30  O   UNL     1       2.093   0.461   0.000  0.00  0.00    +0.000 OA
ATOM     31  C   UNL     1       2.808   0.874   0.000  0.00  0.00    +0.000 C 
ENDBRANCH  29  31
BRANCH  25  32
ATOM     32  O   UNL     1       4.236  -1.601   0.000  0.00  0.00    +0.000 OA
BRANCH  32  34
ATOM     33  O   UNL     1       2.808  -1.601   0.000  0.00  0.00    +0.000 OA
ATOM     34  C   UNL     1       3.522  -2.014   0.000  0.00  0.00    +0.000 C 
BRANCH  34  35
ATOM     35  C   UNL     1       3.522  -2.839   0.000  0.00  0.00    +0.000 C 
ATOM     36  C   UNL     1       2.808  -3.251   0.000  0.00  0.00    +0.000 C 
BRANCH  36  37
ATOM     37  C   UNL     1       2.808  -4.076   0.000  0.00  0.00    +0.000 A 
ATOM     38  C   UNL     1       3.522  -4.489   0.000  0.00  0.00    +0.000 A 
ATOM     39  C   UNL     1       2.093  -4.489   0.000  0.00  0.00    +0.000 A 
ATOM     40  C   UNL     1       3.522  -5.314   0.000  0.00  0.00    +0.000 A 
ATOM     41  C   UNL     1       2.093  -5.314   0.000  0.00  0.00    +0.000 A 
ATOM     42  C   UNL     1       2.808  -5.726   0.000  0.00  0.00    +0.000 A 
ENDBRANCH  36  37
ENDBRANCH  34  35
ENDBRANCH  32  34
ENDBRANCH  25  32
ENDBRANCH   1  27
TORSDOF 8
