REMARK  Name = 44259086
REMARK  4 active torsions:
REMARK  status: ('A' for Active; 'I' for Inactive)
REMARK    1  A    between atoms: O_2  and  C_15
REMARK    2  A    between atoms: O_2  and  C_17
REMARK    3  A    between atoms: O_10  and  C_36
REMARK    4  A    between atoms: C_22  and  C_31
REMARK                            x       y       z     vdW  Elec       q    Type
REMARK                         _______ _______ _______ _____ _____    ______ ____
ROOT
ATOM      1  O   UNL     1       5.683   0.591   0.000  0.00  0.00    +0.000 OA
ATOM      2  O   UNL     1       4.195   3.100   0.000  0.00  0.00    +0.000 OA
ATOM      3  O   UNL     1       3.491  -0.675   0.000  0.00  0.00    +0.000 OA
ATOM      4  O   UNL     1       2.789   0.586   0.000  0.00  0.00    +0.000 OA
ATOM      5  C   UNL     1       4.951  -0.701   0.000  0.00  0.00    +0.000 A 
ATOM      6  C   UNL     1       4.934   3.539   0.000  0.00  0.00    +0.000 C 
ATOM      7  C   UNL     1       4.218   0.591   0.000  0.00  0.00    +0.000 A 
ATOM      8  C   UNL     1       4.931   1.006   0.000  0.00  0.00    +0.000 A 
ATOM      9  C   UNL     1       4.928   1.831   0.000  0.00  0.00    +0.000 A 
ATOM     10  C   UNL     1       5.693  -0.268   0.000  0.00  0.00    +0.000 A 
ATOM     11  C   UNL     1       4.208  -0.268   0.000  0.00  0.00    +0.000 A 
ATOM     12  C   UNL     1       4.212   2.241   0.000  0.00  0.00    +0.000 A 
ATOM     13  C   UNL     1       5.680   3.112   0.000  0.00  0.00    +0.000 C 
ATOM     14  C   UNL     1       5.677   2.252   0.000  0.00  0.00    +0.000 C 
ATOM     15  C   UNL     1       3.502   1.001   0.000  0.00  0.00    +0.000 A 
ATOM     16  C   UNL     1       3.499   1.826   0.000  0.00  0.00    +0.000 A 
ATOM     17  C   UNL     1       5.341   4.256   0.000  0.00  0.00    +0.000 C 
ATOM     18  C   UNL     1       4.516   4.250   0.000  0.00  0.00    +0.000 C 
ENDROOT
BRANCH  10  19
ATOM     19  C   UNL     1       6.411  -0.675   0.000  0.00  0.00    +0.000 A 
ATOM     20  C   UNL     1       6.417  -1.500   0.000  0.00  0.00    +0.000 A 
ATOM     21  C   UNL     1       7.122  -0.257   0.000  0.00  0.00    +0.000 A 
ATOM     22  C   UNL     1       7.135  -1.907   0.000  0.00  0.00    +0.000 A 
ATOM     23  C   UNL     1       7.840  -0.664   0.000  0.00  0.00    +0.000 A 
ATOM     24  C   UNL     1       7.846  -1.489   0.000  0.00  0.00    +0.000 A 
BRANCH  24  25
ATOM     25  O   UNL     1       8.564  -1.896   0.000  0.00  0.00    +0.000 OA
ATOM     26  C   UNL     1       9.275  -1.478   0.000  0.00  0.00    +0.000 C 
ENDBRANCH  24  25
ENDBRANCH  10  19
BRANCH   5  27
ATOM     27  O   UNL     1       4.951  -1.526   0.000  0.00  0.00    +0.000 OA
BRANCH  27  36
ATOM     28  O   UNL     1       3.522  -1.526   0.000  0.00  0.00    +0.000 OA
ATOM     29  O   UNL     1       3.522  -4.000   0.000  0.00  0.00    +0.000 OA
ATOM     30  O   UNL     1       2.093  -3.175   0.000  0.00  0.00    +0.000 OA
ATOM     31  O   UNL     1       4.951  -3.175   0.000  0.00  0.00    +0.000 OA
ATOM     32  C   UNL     1       3.522  -3.175   0.000  0.00  0.00    +0.000 C 
ATOM     33  C   UNL     1       2.807  -2.763   0.000  0.00  0.00    +0.000 C 
ATOM     34  C   UNL     1       4.236  -2.763   0.000  0.00  0.00    +0.000 C 
ATOM     35  C   UNL     1       2.807  -1.938   0.000  0.00  0.00    +0.000 C 
ATOM     36  C   UNL     1       4.236  -1.938   0.000  0.00  0.00    +0.000 C 
ATOM     37  C   UNL     1       2.093  -1.526   0.000  0.00  0.00    +0.000 C 
ENDBRANCH  27  36
ENDBRANCH   5  27
TORSDOF 4
