REMARK  Name = 44258047
REMARK  6 active torsions:
REMARK  status: ('A' for Active; 'I' for Inactive)
REMARK    1  A    between atoms: O_2  and  C_14
REMARK    2  A    between atoms: O_3  and  C_16
REMARK    3  A    between atoms: O_4  and  C_19
REMARK    4  A    between atoms: O_7  and  C_22
REMARK    5  A    between atoms: O_8  and  C_24
REMARK    6  A    between atoms: C_12  and  C_13
REMARK                            x       y       z     vdW  Elec       q    Type
REMARK                         _______ _______ _______ _____ _____    ______ ____
ROOT
ATOM      1  O   UNL     1       5.006  -0.303   0.000  0.00  0.00    +0.000 OA
ATOM      2  O   UNL     1       5.006   2.172   0.000  0.00  0.00    +0.000 OA
ATOM      3  O   UNL     1       2.094   1.367   0.000  0.00  0.00    +0.000 OA
ATOM      4  C   UNL     1       4.292   0.934   0.000  0.00  0.00    +0.000 A 
ATOM      5  C   UNL     1       4.292   0.110   0.000  0.00  0.00    +0.000 A 
ATOM      6  C   UNL     1       5.721   0.110   0.000  0.00  0.00    +0.000 A 
ATOM      7  C   UNL     1       5.721   0.934   0.000  0.00  0.00    +0.000 A 
ATOM      8  C   UNL     1       5.006   1.347   0.000  0.00  0.00    +0.000 A 
ATOM      9  C   UNL     1       3.554   1.376   0.000  0.00  0.00    +0.000 A 
ATOM     10  C   UNL     1       3.554  -0.332   0.000  0.00  0.00    +0.000 A 
ATOM     11  C   UNL     1       2.807   0.952   0.000  0.00  0.00    +0.000 A 
ATOM     12  C   UNL     1       2.807   0.092   0.000  0.00  0.00    +0.000 A 
ENDROOT
BRANCH   6  14
ATOM     13  O   UNL     1       7.150  -2.365   0.000  0.00  0.00    +0.000 OA
ATOM     14  C   UNL     1       6.435  -0.303   0.000  0.00  0.00    +0.000 A 
ATOM     15  C   UNL     1       7.150   0.110   0.000  0.00  0.00    +0.000 A 
ATOM     16  C   UNL     1       6.435  -1.128   0.000  0.00  0.00    +0.000 A 
ATOM     17  C   UNL     1       7.864  -0.303   0.000  0.00  0.00    +0.000 A 
ATOM     18  C   UNL     1       7.150  -1.540   0.000  0.00  0.00    +0.000 A 
ATOM     19  C   UNL     1       7.864  -1.128   0.000  0.00  0.00    +0.000 A 
BRANCH  17  20
ATOM     20  O   UNL     1       8.579   0.110   0.000  0.00  0.00    +0.000 OA
ATOM     21  C   UNL     1       9.293  -0.303   0.000  0.00  0.00    +0.000 C 
ENDBRANCH  17  20
BRANCH  19  22
ATOM     22  O   UNL     1       8.579  -1.540   0.000  0.00  0.00    +0.000 OA
ATOM     23  C   UNL     1       8.579  -2.365   0.000  0.00  0.00    +0.000 C 
ENDBRANCH  19  22
ENDBRANCH   6  14
BRANCH   7  24
ATOM     24  O   UNL     1       6.435   1.347   0.000  0.00  0.00    +0.000 OA
ATOM     25  C   UNL     1       6.435   2.172   0.000  0.00  0.00    +0.000 C 
ENDBRANCH   7  24
BRANCH   9  26
ATOM     26  O   UNL     1       3.564   2.200   0.000  0.00  0.00    +0.000 OA
ATOM     27  C   UNL     1       2.854   2.621   0.000  0.00  0.00    +0.000 C 
ENDBRANCH   9  26
BRANCH  12  28
ATOM     28  O   UNL     1       2.094  -0.323   0.000  0.00  0.00    +0.000 OA
ATOM     29  C   UNL     1       2.097  -1.148   0.000  0.00  0.00    +0.000 C 
ENDBRANCH  12  28
TORSDOF 6
