REMARK  Name = 44257995
REMARK  9 active torsions:
REMARK  status: ('A' for Active; 'I' for Inactive)
REMARK    1  A    between atoms: O_1  and  C_20
REMARK    2  A    between atoms: O_1  and  C_25
REMARK    3  A    between atoms: O_4  and  C_24
REMARK    4  A    between atoms: O_4  and  C_33
REMARK    5  A    between atoms: O_13  and  C_36
REMARK    6  A    between atoms: O_13  and  C_38
REMARK    7  A    between atoms: O_19  and  C_52
REMARK    8  A    between atoms: C_28  and  C_33
REMARK    9  A    between atoms: C_39  and  C_42
REMARK                            x       y       z     vdW  Elec       q    Type
REMARK                         _______ _______ _______ _____ _____    ______ ____
ROOT
ATOM      1  O   UNL     1       8.523  -0.078   0.000  0.00  0.00    +0.000 OA
ATOM      2  O   UNL     1       9.238  -2.141   0.000  0.00  0.00    +0.000 OA
ATOM      3  O   UNL     1      10.667  -1.316   0.000  0.00  0.00    +0.000 OA
ATOM      4  O   UNL     1      10.667   0.334   0.000  0.00  0.00    +0.000 OA
ATOM      5  C   UNL     1       8.523  -0.903   0.000  0.00  0.00    +0.000 C 
ATOM      6  C   UNL     1       9.238  -1.316   0.000  0.00  0.00    +0.000 C 
ATOM      7  C   UNL     1       9.952  -0.903   0.000  0.00  0.00    +0.000 C 
ATOM      8  C   UNL     1       9.952  -0.078   0.000  0.00  0.00    +0.000 C 
ATOM      9  C   UNL     1       9.238   0.334   0.000  0.00  0.00    +0.000 C 
ENDROOT
BRANCH   9  10
ATOM     10  O   UNL     1       9.238   1.159   0.000  0.00  0.00    +0.000 OA
BRANCH  10  15
ATOM     11  O   UNL     1       7.809   2.809   0.000  0.00  0.00    +0.000 OA
ATOM     12  O   UNL     1       7.809   0.334   0.000  0.00  0.00    +0.000 OA
ATOM     13  O   UNL     1       6.366   0.306   0.000  0.00  0.00    +0.000 OA
ATOM     14  O   UNL     1       4.896   2.829   0.000  0.00  0.00    +0.000 OA
ATOM     15  C   UNL     1       8.523   1.572   0.000  0.00  0.00    +0.000 A 
ATOM     16  C   UNL     1       8.523   2.397   0.000  0.00  0.00    +0.000 A 
ATOM     17  C   UNL     1       7.809   1.159   0.000  0.00  0.00    +0.000 A 
ATOM     18  C   UNL     1       7.094   1.572   0.000  0.00  0.00    +0.000 A 
ATOM     19  C   UNL     1       7.094   2.397   0.000  0.00  0.00    +0.000 A 
ATOM     20  C   UNL     1       6.357   1.131   0.000  0.00  0.00    +0.000 A 
ATOM     21  C   UNL     1       6.357   2.838   0.000  0.00  0.00    +0.000 A 
ATOM     22  C   UNL     1       5.609   1.554   0.000  0.00  0.00    +0.000 A 
ATOM     23  C   UNL     1       5.609   2.414   0.000  0.00  0.00    +0.000 A 
BRANCH  16  24
ATOM     24  C   UNL     1       9.238   2.809   0.000  0.00  0.00    +0.000 A 
ATOM     25  C   UNL     1       9.952   2.397   0.000  0.00  0.00    +0.000 A 
ATOM     26  C   UNL     1       9.238   3.634   0.000  0.00  0.00    +0.000 A 
ATOM     27  C   UNL     1      10.667   2.809   0.000  0.00  0.00    +0.000 A 
ATOM     28  C   UNL     1       9.952   4.047   0.000  0.00  0.00    +0.000 A 
ATOM     29  C   UNL     1      10.667   3.634   0.000  0.00  0.00    +0.000 A 
BRANCH  29  30
ATOM     30  O   UNL     1      11.381   4.047   0.000  0.00  0.00    +0.000 OA
ATOM     31  C   UNL     1      11.381   4.872   0.000  0.00  0.00    +0.000 C 
ENDBRANCH  29  30
ENDBRANCH  16  24
ENDBRANCH  10  15
ENDBRANCH   9  10
BRANCH   5  32
ATOM     32  C   UNL     1       7.809  -1.316   0.000  0.00  0.00    +0.000 C 
BRANCH  32  33
ATOM     33  O   UNL     1       7.809  -2.141   0.000  0.00  0.00    +0.000 OA
BRANCH  33  41
ATOM     34  O   UNL     1       6.380  -2.141   0.000  0.00  0.00    +0.000 OA
ATOM     35  O   UNL     1       6.380  -4.616   0.000  0.00  0.00    +0.000 OA
ATOM     36  O   UNL     1       7.809  -3.791   0.000  0.00  0.00    +0.000 OA
ATOM     37  C   UNL     1       5.665  -3.378   0.000  0.00  0.00    +0.000 C 
ATOM     38  C   UNL     1       6.380  -3.791   0.000  0.00  0.00    +0.000 C 
ATOM     39  C   UNL     1       5.665  -2.553   0.000  0.00  0.00    +0.000 C 
ATOM     40  C   UNL     1       7.094  -3.378   0.000  0.00  0.00    +0.000 C 
ATOM     41  C   UNL     1       7.094  -2.553   0.000  0.00  0.00    +0.000 C 
ATOM     42  C   UNL     1       4.951  -2.141   0.000  0.00  0.00    +0.000 C 
BRANCH  37  43
ATOM     43  O   UNL     1       4.951  -3.791   0.000  0.00  0.00    +0.000 OA
BRANCH  43  48
ATOM     44  O   UNL     1       4.236  -2.553   0.000  0.00  0.00    +0.000 OA
ATOM     45  O   UNL     1       3.522  -4.616   0.000  0.00  0.00    +0.000 OA
ATOM     46  O   UNL     1       2.093  -3.791   0.000  0.00  0.00    +0.000 OA
ATOM     47  O   UNL     1       2.093  -2.141   0.000  0.00  0.00    +0.000 OA
ATOM     48  C   UNL     1       4.236  -3.378   0.000  0.00  0.00    +0.000 C 
ATOM     49  C   UNL     1       3.522  -3.791   0.000  0.00  0.00    +0.000 C 
ATOM     50  C   UNL     1       2.808  -3.378   0.000  0.00  0.00    +0.000 C 
ATOM     51  C   UNL     1       2.808  -2.553   0.000  0.00  0.00    +0.000 C 
ATOM     52  C   UNL     1       3.522  -2.141   0.000  0.00  0.00    +0.000 C 
ATOM     53  C   UNL     1       3.522  -1.316   0.000  0.00  0.00    +0.000 C 
ENDBRANCH  43  48
ENDBRANCH  37  43
ENDBRANCH  33  41
ENDBRANCH  32  33
ENDBRANCH   5  32
TORSDOF 9
