REMARK  Name = 44257857
REMARK  10 active torsions:
REMARK  status: ('A' for Active; 'I' for Inactive)
REMARK    1  A    between atoms: O_4  and  C_19
REMARK    2  A    between atoms: O_4  and  C_22
REMARK    3  A    between atoms: O_6  and  C_20
REMARK    4  A    between atoms: O_6  and  C_24
REMARK    5  A    between atoms: C_17  and  C_20
REMARK    6  A    between atoms: C_21  and  C_23
REMARK    7  A    between atoms: C_21  and  C_25
REMARK    8  A    between atoms: C_23  and  C_24
REMARK    9  A    between atoms: C_25  and  C_32
REMARK   10  A    between atoms: C_34  and  C_36
REMARK                            x       y       z     vdW  Elec       q    Type
REMARK                         _______ _______ _______ _____ _____    ______ ____
ROOT
ATOM      1  O   UNL     1       8.523  -1.386   0.000  0.00  0.00    +0.000 OA
ATOM      2  O   UNL     1       7.094  -3.036   0.000  0.00  0.00    +0.000 OA
ATOM      3  O   UNL     1       8.523  -3.861   0.000  0.00  0.00    +0.000 OA
ATOM      4  O   UNL     1       9.952  -3.036   0.000  0.00  0.00    +0.000 OA
ATOM      5  C   UNL     1       7.809  -2.623   0.000  0.00  0.00    +0.000 C 
ATOM      6  C   UNL     1       8.523  -3.036   0.000  0.00  0.00    +0.000 C 
ATOM      7  C   UNL     1       7.809  -1.798   0.000  0.00  0.00    +0.000 C 
ATOM      8  C   UNL     1       9.238  -2.623   0.000  0.00  0.00    +0.000 C 
ATOM      9  C   UNL     1       9.238  -1.798   0.000  0.00  0.00    +0.000 C 
ENDROOT
BRANCH   9  10
ATOM     10  O   UNL     1       9.952  -1.386   0.000  0.00  0.00    +0.000 OA
BRANCH  10  14
ATOM     11  O   UNL     1      11.401   1.141   0.000  0.00  0.00    +0.000 OA
ATOM     12  O   UNL     1       8.511   1.155   0.000  0.00  0.00    +0.000 OA
ATOM     13  O   UNL     1       9.262   2.387   0.000  0.00  0.00    +0.000 OA
ATOM     14  C   UNL     1       9.952  -0.561   0.000  0.00  0.00    +0.000 A 
ATOM     15  C   UNL     1      10.695  -0.128   0.000  0.00  0.00    +0.000 A 
ATOM     16  C   UNL     1       9.210  -0.128   0.000  0.00  0.00    +0.000 A 
ATOM     17  C   UNL     1      10.685   0.731   0.000  0.00  0.00    +0.000 A 
ATOM     18  C   UNL     1       9.972   1.146   0.000  0.00  0.00    +0.000 A 
ATOM     19  C   UNL     1       9.220   0.731   0.000  0.00  0.00    +0.000 A 
ATOM     20  C   UNL     1       9.975   1.971   0.000  0.00  0.00    +0.000 A 
ATOM     21  C   UNL     1      11.404   1.966   0.000  0.00  0.00    +0.000 A 
ATOM     22  C   UNL     1      10.691   2.381   0.000  0.00  0.00    +0.000 A 
BRANCH  21  24
ATOM     23  O   UNL     1      14.268   3.605   0.000  0.00  0.00    +0.000 OA
ATOM     24  C   UNL     1      12.120   2.376   0.000  0.00  0.00    +0.000 A 
ATOM     25  C   UNL     1      12.123   3.201   0.000  0.00  0.00    +0.000 A 
ATOM     26  C   UNL     1      12.833   1.960   0.000  0.00  0.00    +0.000 A 
ATOM     27  C   UNL     1      12.839   3.610   0.000  0.00  0.00    +0.000 A 
ATOM     28  C   UNL     1      13.549   2.370   0.000  0.00  0.00    +0.000 A 
ATOM     29  C   UNL     1      13.552   3.195   0.000  0.00  0.00    +0.000 A 
ENDBRANCH  21  24
ENDBRANCH  10  14
ENDBRANCH   9  10
BRANCH   7  30
ATOM     30  C   UNL     1       7.094  -1.386   0.000  0.00  0.00    +0.000 C 
BRANCH  30  31
ATOM     31  O   UNL     1       6.380  -1.798   0.000  0.00  0.00    +0.000 OA
BRANCH  31  33
ATOM     32  O   UNL     1       5.665  -0.561   0.000  0.00  0.00    +0.000 OA
ATOM     33  C   UNL     1       5.665  -1.386   0.000  0.00  0.00    +0.000 C 
BRANCH  33  34
ATOM     34  C   UNL     1       4.951  -1.798   0.000  0.00  0.00    +0.000 C 
BRANCH  34  36
ATOM     35  O   UNL     1       3.824  -2.100   0.000  0.00  0.00    +0.000 OA
ATOM     36  C   UNL     1       4.236  -1.386   0.000  0.00  0.00    +0.000 C 
ATOM     37  C   UNL     1       4.649  -0.671   0.000  0.00  0.00    +0.000 C 
BRANCH  36  38
ATOM     38  C   UNL     1       3.522  -0.973   0.000  0.00  0.00    +0.000 C 
BRANCH  38  41
ATOM     39  O   UNL     1       2.093  -0.973   0.000  0.00  0.00    +0.000 OA
ATOM     40  O   UNL     1       2.808  -2.211   0.000  0.00  0.00    +0.000 OA
ATOM     41  C   UNL     1       2.808  -1.386   0.000  0.00  0.00    +0.000 C 
ENDBRANCH  38  41
ENDBRANCH  36  38
ENDBRANCH  34  36
ENDBRANCH  33  34
ENDBRANCH  31  33
ENDBRANCH  30  31
ENDBRANCH   7  30
TORSDOF 10
