REMARK  Name = 44259537
REMARK  5 active torsions:
REMARK  status: ('A' for Active; 'I' for Inactive)
REMARK    1  A    between atoms: O_2  and  C_18
REMARK    2  A    between atoms: O_2  and  C_20
REMARK    3  A    between atoms: O_8  and  C_25
REMARK    4  A    between atoms: C_17  and  C_19
REMARK    5  A    between atoms: C_27  and  C_29
REMARK                            x       y       z     vdW  Elec       q    Type
REMARK                         _______ _______ _______ _____ _____    ______ ____
ROOT
ATOM      1  O   UNL     1       7.114   0.854   0.000  0.00  0.00    +0.000 OA
ATOM      2  O   UNL     1       6.407   2.920   0.000  0.00  0.00    +0.000 OA
ATOM      3  O   UNL     1       4.975   2.100   0.000  0.00  0.00    +0.000 OA
ATOM      4  C   UNL     1       5.665  -0.847   0.000  0.00  0.00    +0.000 A 
ATOM      5  C   UNL     1       6.408  -0.415   0.000  0.00  0.00    +0.000 A 
ATOM      6  C   UNL     1       4.923  -0.415   0.000  0.00  0.00    +0.000 A 
ATOM      7  C   UNL     1       6.398   0.445   0.000  0.00  0.00    +0.000 A 
ATOM      8  C   UNL     1       5.685   0.860   0.000  0.00  0.00    +0.000 A 
ATOM      9  C   UNL     1       4.933   0.445   0.000  0.00  0.00    +0.000 A 
ATOM     10  C   UNL     1       5.688   1.685   0.000  0.00  0.00    +0.000 A 
ATOM     11  C   UNL     1       7.117   1.679   0.000  0.00  0.00    +0.000 A 
ATOM     12  C   UNL     1       6.404   2.095   0.000  0.00  0.00    +0.000 A 
ENDROOT
BRANCH  11  16
ATOM     13  O   UNL     1       8.556   4.149   0.000  0.00  0.00    +0.000 OA
ATOM     14  O   UNL     1       9.975   1.668   0.000  0.00  0.00    +0.000 OA
ATOM     15  O   UNL     1       9.981   3.318   0.000  0.00  0.00    +0.000 OA
ATOM     16  C   UNL     1       7.833   2.089   0.000  0.00  0.00    +0.000 A 
ATOM     17  C   UNL     1       8.546   1.674   0.000  0.00  0.00    +0.000 A 
ATOM     18  C   UNL     1       7.836   2.914   0.000  0.00  0.00    +0.000 A 
ATOM     19  C   UNL     1       8.552   3.324   0.000  0.00  0.00    +0.000 A 
ATOM     20  C   UNL     1       9.262   2.084   0.000  0.00  0.00    +0.000 A 
ATOM     21  C   UNL     1       9.265   2.909   0.000  0.00  0.00    +0.000 A 
ENDBRANCH  11  16
BRANCH   9  22
ATOM     22  O   UNL     1       4.225   0.868   0.000  0.00  0.00    +0.000 OA
ATOM     23  C   UNL     1       3.504   0.467   0.000  0.00  0.00    +0.000 C 
ENDBRANCH   9  22
BRANCH   4  24
ATOM     24  O   UNL     1       5.665  -1.672   0.000  0.00  0.00    +0.000 OA
BRANCH  24  33
ATOM     25  O   UNL     1       4.236  -1.672   0.000  0.00  0.00    +0.000 OA
ATOM     26  O   UNL     1       4.236  -4.147   0.000  0.00  0.00    +0.000 OA
ATOM     27  O   UNL     1       2.808  -3.322   0.000  0.00  0.00    +0.000 OA
ATOM     28  O   UNL     1       5.665  -3.322   0.000  0.00  0.00    +0.000 OA
ATOM     29  C   UNL     1       4.236  -3.322   0.000  0.00  0.00    +0.000 C 
ATOM     30  C   UNL     1       3.522  -2.910   0.000  0.00  0.00    +0.000 C 
ATOM     31  C   UNL     1       4.951  -2.910   0.000  0.00  0.00    +0.000 C 
ATOM     32  C   UNL     1       3.522  -2.085   0.000  0.00  0.00    +0.000 C 
ATOM     33  C   UNL     1       4.951  -2.085   0.000  0.00  0.00    +0.000 C 
BRANCH  32  35
ATOM     34  O   UNL     1       2.093  -2.085   0.000  0.00  0.00    +0.000 OA
ATOM     35  C   UNL     1       2.808  -1.672   0.000  0.00  0.00    +0.000 C 
ENDBRANCH  32  35
ENDBRANCH  24  33
ENDBRANCH   4  24
TORSDOF 5
