REMARK  Name = 44258951
REMARK  6 active torsions:
REMARK  status: ('A' for Active; 'I' for Inactive)
REMARK    1  A    between atoms: O_2  and  C_15
REMARK    2  A    between atoms: O_2  and  C_21
REMARK    3  A    between atoms: O_3  and  C_18
REMARK    4  A    between atoms: O_3  and  C_20
REMARK    5  A    between atoms: C_21  and  C_25
REMARK    6  A    between atoms: C_22  and  C_27
REMARK                            x       y       z     vdW  Elec       q    Type
REMARK                         _______ _______ _______ _____ _____    ______ ____
ROOT
ATOM      1  O   UNL     1       6.435  -0.078   0.000  0.00  0.00    +0.000 OA
ENDROOT
BRANCH   1   6
ATOM      2  O   UNL     1       5.006  -1.728   0.000  0.00  0.00    +0.000 OA
ATOM      3  O   UNL     1       5.006   0.747   0.000  0.00  0.00    +0.000 OA
ATOM      4  O   UNL     1       3.564   0.775   0.000  0.00  0.00    +0.000 OA
ATOM      5  O   UNL     1       2.094  -1.748   0.000  0.00  0.00    +0.000 OA
ATOM      6  C   UNL     1       5.721  -0.491   0.000  0.00  0.00    +0.000 A 
ATOM      7  C   UNL     1       5.721  -1.316   0.000  0.00  0.00    +0.000 A 
ATOM      8  C   UNL     1       5.006  -0.078   0.000  0.00  0.00    +0.000 A 
ATOM      9  C   UNL     1       4.292  -0.491   0.000  0.00  0.00    +0.000 A 
ATOM     10  C   UNL     1       4.292  -1.316   0.000  0.00  0.00    +0.000 A 
ATOM     11  C   UNL     1       3.554  -0.050   0.000  0.00  0.00    +0.000 A 
ATOM     12  C   UNL     1       3.554  -1.757   0.000  0.00  0.00    +0.000 A 
ATOM     13  C   UNL     1       2.807  -0.474   0.000  0.00  0.00    +0.000 A 
ATOM     14  C   UNL     1       2.807  -1.333   0.000  0.00  0.00    +0.000 A 
BRANCH   7  16
ATOM     15  O   UNL     1       8.579  -2.966   0.000  0.00  0.00    +0.000 OA
ATOM     16  C   UNL     1       6.435  -1.728   0.000  0.00  0.00    +0.000 A 
ATOM     17  C   UNL     1       7.150  -1.316   0.000  0.00  0.00    +0.000 A 
ATOM     18  C   UNL     1       6.435  -2.553   0.000  0.00  0.00    +0.000 A 
ATOM     19  C   UNL     1       7.864  -1.728   0.000  0.00  0.00    +0.000 A 
ATOM     20  C   UNL     1       7.150  -2.966   0.000  0.00  0.00    +0.000 A 
ATOM     21  C   UNL     1       7.864  -2.553   0.000  0.00  0.00    +0.000 A 
ENDBRANCH   7  16
ENDBRANCH   1   6
BRANCH   1  28
ATOM     22  O   UNL     1       5.721   1.159   0.000  0.00  0.00    +0.000 OA
ATOM     23  O   UNL     1       7.864   2.397   0.000  0.00  0.00    +0.000 OA
ATOM     24  O   UNL     1       6.435   3.222   0.000  0.00  0.00    +0.000 OA
ATOM     25  C   UNL     1       7.150   1.159   0.000  0.00  0.00    +0.000 C 
ATOM     26  C   UNL     1       7.150   1.984   0.000  0.00  0.00    +0.000 C 
ATOM     27  C   UNL     1       6.435   2.397   0.000  0.00  0.00    +0.000 C 
ATOM     28  C   UNL     1       6.435   0.747   0.000  0.00  0.00    +0.000 C 
ATOM     29  C   UNL     1       5.721   1.984   0.000  0.00  0.00    +0.000 C 
BRANCH  25  30
ATOM     30  O   UNL     1       7.864   0.747   0.000  0.00  0.00    +0.000 OA
BRANCH  30  32
ATOM     31  O   UNL     1       8.579   1.984   0.000  0.00  0.00    +0.000 OA
ATOM     32  C   UNL     1       8.579   1.159   0.000  0.00  0.00    +0.000 C 
BRANCH  32  36
ATOM     33  O   UNL     1      10.008  -1.316   0.000  0.00  0.00    +0.000 OA
ATOM     34  O   UNL     1      11.437   1.159   0.000  0.00  0.00    +0.000 OA
ATOM     35  O   UNL     1      11.437  -0.491   0.000  0.00  0.00    +0.000 OA
ATOM     36  C   UNL     1       9.293   0.747   0.000  0.00  0.00    +0.000 A 
ATOM     37  C   UNL     1      10.008   1.159   0.000  0.00  0.00    +0.000 A 
ATOM     38  C   UNL     1       9.293  -0.078   0.000  0.00  0.00    +0.000 A 
ATOM     39  C   UNL     1      10.008  -0.491   0.000  0.00  0.00    +0.000 A 
ATOM     40  C   UNL     1      10.722   0.747   0.000  0.00  0.00    +0.000 A 
ATOM     41  C   UNL     1      10.722  -0.078   0.000  0.00  0.00    +0.000 A 
ENDBRANCH  32  36
ENDBRANCH  30  32
ENDBRANCH  25  30
ENDBRANCH   1  28
TORSDOF 6
