REMARK  Name = 13870532
REMARK  9 active torsions:
REMARK  status: ('A' for Active; 'I' for Inactive)
REMARK    1  A    between atoms: O_4  and  C_16
REMARK    2  A    between atoms: O_4  and  C_18
REMARK    3  A    between atoms: O_7  and  C_19
REMARK    4  A    between atoms: O_8  and  C_29
REMARK    5  A    between atoms: O_11  and  C_33
REMARK    6  A    between atoms: C_14  and  C_17
REMARK    7  A    between atoms: C_23  and  C_24
REMARK    8  A    between atoms: C_26  and  C_27
REMARK    9  A    between atoms: C_27  and  C_28
REMARK                            x       y       z     vdW  Elec       q    Type
REMARK                         _______ _______ _______ _____ _____    ______ ____
ROOT
ATOM      1  C   UNL     1       5.665  -1.316   0.000  0.00  0.00    +0.000 A 
ATOM      2  C   UNL     1       6.380  -0.903   0.000  0.00  0.00    +0.000 A 
ATOM      3  C   UNL     1       4.951  -0.903   0.000  0.00  0.00    +0.000 A 
ATOM      4  C   UNL     1       6.380  -0.078   0.000  0.00  0.00    +0.000 A 
ATOM      5  C   UNL     1       4.951  -0.078   0.000  0.00  0.00    +0.000 A 
ATOM      6  C   UNL     1       5.665   0.334   0.000  0.00  0.00    +0.000 A 
ENDROOT
BRANCH   2   7
ATOM      7  O   UNL     1       7.094  -1.316   0.000  0.00  0.00    +0.000 OA
ATOM      8  C   UNL     1       7.809  -0.903   0.000  0.00  0.00    +0.000 C 
ENDBRANCH   2   7
BRANCH   6   9
ATOM      9  C   UNL     1       5.665   1.159   0.000  0.00  0.00    +0.000 C 
ATOM     10  C   UNL     1       6.380   1.572   0.000  0.00  0.00    +0.000 C 
BRANCH  10  12
ATOM     11  O   UNL     1       5.665   2.809   0.000  0.00  0.00    +0.000 OA
ATOM     12  C   UNL     1       6.380   2.397   0.000  0.00  0.00    +0.000 C 
BRANCH  12  14
ATOM     13  O   UNL     1       7.809   1.572   0.000  0.00  0.00    +0.000 OA
ATOM     14  C   UNL     1       7.094   2.809   0.000  0.00  0.00    +0.000 A 
ATOM     15  C   UNL     1       7.094   3.634   0.000  0.00  0.00    +0.000 A 
ATOM     16  C   UNL     1       7.809   2.397   0.000  0.00  0.00    +0.000 A 
ATOM     17  C   UNL     1       7.809   4.047   0.000  0.00  0.00    +0.000 A 
ATOM     18  C   UNL     1       8.523   2.809   0.000  0.00  0.00    +0.000 A 
ATOM     19  C   UNL     1       8.523   3.634   0.000  0.00  0.00    +0.000 A 
BRANCH  15  20
ATOM     20  O   UNL     1       6.380   4.047   0.000  0.00  0.00    +0.000 OA
ATOM     21  C   UNL     1       6.380   4.872   0.000  0.00  0.00    +0.000 C 
ENDBRANCH  15  20
BRANCH  19  22
ATOM     22  O   UNL     1       9.238   4.047   0.000  0.00  0.00    +0.000 OA
ATOM     23  C   UNL     1       9.238   4.872   0.000  0.00  0.00    +0.000 C 
ENDBRANCH  19  22
ENDBRANCH  12  14
ENDBRANCH  10  12
ENDBRANCH   6   9
BRANCH   1  24
ATOM     24  O   UNL     1       5.665  -2.141   0.000  0.00  0.00    +0.000 OA
BRANCH  24  33
ATOM     25  O   UNL     1       4.236  -2.141   0.000  0.00  0.00    +0.000 OA
ATOM     26  O   UNL     1       2.808  -3.791   0.000  0.00  0.00    +0.000 OA
ATOM     27  O   UNL     1       4.236  -4.616   0.000  0.00  0.00    +0.000 OA
ATOM     28  O   UNL     1       5.665  -3.791   0.000  0.00  0.00    +0.000 OA
ATOM     29  C   UNL     1       3.522  -3.378   0.000  0.00  0.00    +0.000 C 
ATOM     30  C   UNL     1       4.236  -3.791   0.000  0.00  0.00    +0.000 C 
ATOM     31  C   UNL     1       3.522  -2.553   0.000  0.00  0.00    +0.000 C 
ATOM     32  C   UNL     1       4.951  -3.378   0.000  0.00  0.00    +0.000 C 
ATOM     33  C   UNL     1       4.951  -2.553   0.000  0.00  0.00    +0.000 C 
BRANCH  31  35
ATOM     34  O   UNL     1       2.093  -2.553   0.000  0.00  0.00    +0.000 OA
ATOM     35  C   UNL     1       2.808  -2.141   0.000  0.00  0.00    +0.000 C 
ENDBRANCH  31  35
ENDBRANCH  24  33
ENDBRANCH   1  24
TORSDOF 9
