REMARK  Name = 44258141
REMARK  7 active torsions:
REMARK  status: ('A' for Active; 'I' for Inactive)
REMARK    1  A    between atoms: O_2  and  C_17
REMARK    2  A    between atoms: O_2  and  C_19
REMARK    3  A    between atoms: O_10  and  C_33
REMARK    4  A    between atoms: O_10  and  C_34
REMARK    5  A    between atoms: C_16  and  C_18
REMARK    6  A    between atoms: C_26  and  C_28
REMARK    7  A    between atoms: C_34  and  C_35
REMARK                            x       y       z     vdW  Elec       q    Type
REMARK                         _______ _______ _______ _____ _____    ______ ____
ROOT
ATOM      1  O   UNL     1       7.114   0.159   0.000  0.00  0.00    +0.000 OA
ATOM      2  O   UNL     1       4.225   0.173   0.000  0.00  0.00    +0.000 OA
ATOM      3  O   UNL     1       4.975   1.405   0.000  0.00  0.00    +0.000 OA
ATOM      4  C   UNL     1       5.665  -1.542   0.000  0.00  0.00    +0.000 A 
ATOM      5  C   UNL     1       6.408  -1.110   0.000  0.00  0.00    +0.000 A 
ATOM      6  C   UNL     1       4.923  -1.110   0.000  0.00  0.00    +0.000 A 
ATOM      7  C   UNL     1       6.398  -0.251   0.000  0.00  0.00    +0.000 A 
ATOM      8  C   UNL     1       5.685   0.165   0.000  0.00  0.00    +0.000 A 
ATOM      9  C   UNL     1       4.933  -0.251   0.000  0.00  0.00    +0.000 A 
ATOM     10  C   UNL     1       5.688   0.990   0.000  0.00  0.00    +0.000 A 
ATOM     11  C   UNL     1       7.117   0.984   0.000  0.00  0.00    +0.000 A 
ATOM     12  C   UNL     1       6.404   1.399   0.000  0.00  0.00    +0.000 A 
ENDROOT
BRANCH  11  14
ATOM     13  O   UNL     1       9.975   0.973   0.000  0.00  0.00    +0.000 OA
ATOM     14  C   UNL     1       7.833   1.394   0.000  0.00  0.00    +0.000 A 
ATOM     15  C   UNL     1       8.546   0.979   0.000  0.00  0.00    +0.000 A 
ATOM     16  C   UNL     1       7.836   2.219   0.000  0.00  0.00    +0.000 A 
ATOM     17  C   UNL     1       9.262   1.388   0.000  0.00  0.00    +0.000 A 
ATOM     18  C   UNL     1       8.552   2.629   0.000  0.00  0.00    +0.000 A 
ATOM     19  C   UNL     1       9.265   2.213   0.000  0.00  0.00    +0.000 A 
BRANCH  19  20
ATOM     20  O   UNL     1       9.981   2.623   0.000  0.00  0.00    +0.000 OA
BRANCH  20  22
ATOM     21  O   UNL     1       9.272   3.863   0.000  0.00  0.00    +0.000 OA
ATOM     22  C   UNL     1       9.985   3.448   0.000  0.00  0.00    +0.000 C 
BRANCH  22  23
ATOM     23  C   UNL     1      10.701   3.858   0.000  0.00  0.00    +0.000 C 
ATOM     24  C   UNL     1      11.414   3.443   0.000  0.00  0.00    +0.000 C 
ATOM     25  C   UNL     1      10.704   4.683   0.000  0.00  0.00    +0.000 C 
ATOM     26  C   UNL     1       9.991   5.098   0.000  0.00  0.00    +0.000 C 
ENDBRANCH  22  23
ENDBRANCH  20  22
ENDBRANCH  19  20
ENDBRANCH  11  14
BRANCH   4  27
ATOM     27  O   UNL     1       5.665  -2.367   0.000  0.00  0.00    +0.000 OA
BRANCH  27  36
ATOM     28  O   UNL     1       4.236  -2.367   0.000  0.00  0.00    +0.000 OA
ATOM     29  O   UNL     1       4.236  -4.842   0.000  0.00  0.00    +0.000 OA
ATOM     30  O   UNL     1       2.808  -4.017   0.000  0.00  0.00    +0.000 OA
ATOM     31  O   UNL     1       5.665  -4.017   0.000  0.00  0.00    +0.000 OA
ATOM     32  C   UNL     1       4.236  -4.017   0.000  0.00  0.00    +0.000 C 
ATOM     33  C   UNL     1       3.522  -3.605   0.000  0.00  0.00    +0.000 C 
ATOM     34  C   UNL     1       4.951  -3.605   0.000  0.00  0.00    +0.000 C 
ATOM     35  C   UNL     1       3.522  -2.780   0.000  0.00  0.00    +0.000 C 
ATOM     36  C   UNL     1       4.951  -2.780   0.000  0.00  0.00    +0.000 C 
BRANCH  35  38
ATOM     37  O   UNL     1       2.093  -2.780   0.000  0.00  0.00    +0.000 OA
ATOM     38  C   UNL     1       2.808  -2.367   0.000  0.00  0.00    +0.000 C 
ENDBRANCH  35  38
ENDBRANCH  27  36
ENDBRANCH   4  27
TORSDOF 7
