REMARK  Name = 44258396
REMARK  9 active torsions:
REMARK  status: ('A' for Active; 'I' for Inactive)
REMARK    1  A    between atoms: O_1  and  C_16
REMARK    2  A    between atoms: O_1  and  C_21
REMARK    3  A    between atoms: O_4  and  C_19
REMARK    4  A    between atoms: O_4  and  C_27
REMARK    5  A    between atoms: O_11  and  C_31
REMARK    6  A    between atoms: O_13  and  C_40
REMARK    7  A    between atoms: O_14  and  C_41
REMARK    8  A    between atoms: O_15  and  C_42
REMARK    9  A    between atoms: C_35  and  C_36
REMARK                            x       y       z     vdW  Elec       q    Type
REMARK                         _______ _______ _______ _____ _____    ______ ____
ROOT
ATOM      1  O   UNL     1       6.422   2.617   0.000  0.00  0.00    +0.000 OA
ATOM      2  O   UNL     1       6.394   0.142   0.000  0.00  0.00    +0.000 OA
ATOM      3  C   UNL     1       4.951   0.955   0.000  0.00  0.00    +0.000 A 
ATOM      4  C   UNL     1       5.693   1.388   0.000  0.00  0.00    +0.000 A 
ATOM      5  C   UNL     1       4.208   1.388   0.000  0.00  0.00    +0.000 A 
ATOM      6  C   UNL     1       5.703   2.213   0.000  0.00  0.00    +0.000 A 
ATOM      7  C   UNL     1       4.218   2.247   0.000  0.00  0.00    +0.000 A 
ATOM      8  C   UNL     1       6.403   0.967   0.000  0.00  0.00    +0.000 A 
ATOM      9  C   UNL     1       4.971   2.662   0.000  0.00  0.00    +0.000 A 
ATOM     10  C   UNL     1       7.122   1.371   0.000  0.00  0.00    +0.000 A 
ATOM     11  C   UNL     1       7.132   2.196   0.000  0.00  0.00    +0.000 A 
ENDROOT
BRANCH  11  12
ATOM     12  C   UNL     1       7.851   2.601   0.000  0.00  0.00    +0.000 A 
ATOM     13  C   UNL     1       7.861   3.425   0.000  0.00  0.00    +0.000 A 
ATOM     14  C   UNL     1       8.561   2.180   0.000  0.00  0.00    +0.000 A 
ATOM     15  C   UNL     1       9.280   2.584   0.000  0.00  0.00    +0.000 A 
ATOM     16  C   UNL     1       8.580   3.830   0.000  0.00  0.00    +0.000 A 
ATOM     17  C   UNL     1       9.289   3.409   0.000  0.00  0.00    +0.000 A 
BRANCH  15  18
ATOM     18  O   UNL     1       9.989   2.163   0.000  0.00  0.00    +0.000 OA
ATOM     19  C   UNL     1      10.709   2.567   0.000  0.00  0.00    +0.000 C 
ENDBRANCH  15  18
BRANCH  16  20
ATOM     20  O   UNL     1       8.589   4.655   0.000  0.00  0.00    +0.000 OA
ATOM     21  C   UNL     1       7.880   5.075   0.000  0.00  0.00    +0.000 C 
ENDBRANCH  16  20
BRANCH  17  22
ATOM     22  O   UNL     1      10.009   3.813   0.000  0.00  0.00    +0.000 OA
ATOM     23  C   UNL     1      10.018   4.638   0.000  0.00  0.00    +0.000 C 
ENDBRANCH  17  22
ENDBRANCH  11  12
BRANCH   7  24
ATOM     24  O   UNL     1       3.510   2.671   0.000  0.00  0.00    +0.000 OA
ATOM     25  C   UNL     1       3.523   3.495   0.000  0.00  0.00    +0.000 C 
ENDBRANCH   7  24
BRANCH   3  26
ATOM     26  O   UNL     1       4.951   0.130   0.000  0.00  0.00    +0.000 OA
BRANCH  26  33
ATOM     27  O   UNL     1       3.522   0.130   0.000  0.00  0.00    +0.000 OA
ATOM     28  O   UNL     1       3.522  -2.345   0.000  0.00  0.00    +0.000 OA
ATOM     29  O   UNL     1       2.093  -1.520   0.000  0.00  0.00    +0.000 OA
ATOM     30  C   UNL     1       4.236  -1.107   0.000  0.00  0.00    +0.000 C 
ATOM     31  C   UNL     1       3.522  -1.520   0.000  0.00  0.00    +0.000 C 
ATOM     32  C   UNL     1       2.808  -1.107   0.000  0.00  0.00    +0.000 C 
ATOM     33  C   UNL     1       4.236  -0.282   0.000  0.00  0.00    +0.000 C 
ATOM     34  C   UNL     1       2.808  -0.282   0.000  0.00  0.00    +0.000 C 
ATOM     35  C   UNL     1       2.093   0.130   0.000  0.00  0.00    +0.000 C 
BRANCH  30  36
ATOM     36  O   UNL     1       4.951  -1.520   0.000  0.00  0.00    +0.000 OA
BRANCH  36  41
ATOM     37  O   UNL     1       4.236  -2.757   0.000  0.00  0.00    +0.000 OA
ATOM     38  O   UNL     1       6.380  -2.345   0.000  0.00  0.00    +0.000 OA
ATOM     39  O   UNL     1       6.380  -3.995   0.000  0.00  0.00    +0.000 OA
ATOM     40  O   UNL     1       4.951  -4.820   0.000  0.00  0.00    +0.000 OA
ATOM     41  C   UNL     1       4.951  -2.345   0.000  0.00  0.00    +0.000 C 
ATOM     42  C   UNL     1       5.665  -2.757   0.000  0.00  0.00    +0.000 C 
ATOM     43  C   UNL     1       5.665  -3.582   0.000  0.00  0.00    +0.000 C 
ATOM     44  C   UNL     1       4.951  -3.995   0.000  0.00  0.00    +0.000 C 
ATOM     45  C   UNL     1       4.236  -3.582   0.000  0.00  0.00    +0.000 C 
ENDBRANCH  36  41
ENDBRANCH  30  36
ENDBRANCH  26  33
ENDBRANCH   3  26
TORSDOF 9
