REMARK  Name = 13942546
REMARK  9 active torsions:
REMARK  status: ('A' for Active; 'I' for Inactive)
REMARK    1  A    between atoms: O_2  and  C_16
REMARK    2  A    between atoms: O_2  and  C_24
REMARK    3  A    between atoms: O_3  and  C_12
REMARK    4  A    between atoms: O_4  and  C_13
REMARK    5  A    between atoms: O_5  and  C_15
REMARK    6  A    between atoms: O_7  and  C_21
REMARK    7  A    between atoms: O_8  and  C_22
REMARK    8  A    between atoms: C_11  and  C_17
REMARK    9  A    between atoms: C_24  and  C_25
REMARK                            x       y       z     vdW  Elec       q    Type
REMARK                         _______ _______ _______ _____ _____    ______ ____
ROOT
ATOM      1  O   UNL     1       7.420  -0.225   0.000  0.00  0.00    +0.000 OA
ATOM      2  O   UNL     1       7.420   2.250   0.000  0.00  0.00    +0.000 OA
ATOM      3  C   UNL     1       6.706   1.013   0.000  0.00  0.00    +0.000 A 
ATOM      4  C   UNL     1       6.706   0.188   0.000  0.00  0.00    +0.000 A 
ATOM      5  C   UNL     1       8.135   0.188   0.000  0.00  0.00    +0.000 A 
ATOM      6  C   UNL     1       5.968  -0.253   0.000  0.00  0.00    +0.000 A 
ATOM      7  C   UNL     1       5.968   1.454   0.000  0.00  0.00    +0.000 A 
ATOM      8  C   UNL     1       7.420   1.425   0.000  0.00  0.00    +0.000 A 
ATOM      9  C   UNL     1       8.135   1.013   0.000  0.00  0.00    +0.000 A 
ATOM     10  C   UNL     1       5.221   0.171   0.000  0.00  0.00    +0.000 A 
ATOM     11  C   UNL     1       5.221   1.030   0.000  0.00  0.00    +0.000 A 
ENDROOT
BRANCH   5  12
ATOM     12  C   UNL     1       8.849  -0.225   0.000  0.00  0.00    +0.000 A 
ATOM     13  C   UNL     1       8.849  -1.050   0.000  0.00  0.00    +0.000 A 
ATOM     14  C   UNL     1       9.564   0.188   0.000  0.00  0.00    +0.000 A 
ATOM     15  C   UNL     1       9.564  -1.462   0.000  0.00  0.00    +0.000 A 
ATOM     16  C   UNL     1      10.278  -1.050   0.000  0.00  0.00    +0.000 A 
ATOM     17  C   UNL     1      10.278  -0.225   0.000  0.00  0.00    +0.000 A 
BRANCH  15  18
ATOM     18  O   UNL     1       9.564  -2.287   0.000  0.00  0.00    +0.000 OA
ATOM     19  C   UNL     1      10.278  -2.700   0.000  0.00  0.00    +0.000 C 
ENDBRANCH  15  18
BRANCH  16  20
ATOM     20  O   UNL     1      10.992  -1.462   0.000  0.00  0.00    +0.000 OA
ATOM     21  C   UNL     1      11.707  -1.050   0.000  0.00  0.00    +0.000 C 
ENDBRANCH  16  20
ENDBRANCH   5  12
BRANCH   6  22
ATOM     22  O   UNL     1       5.978  -1.078   0.000  0.00  0.00    +0.000 OA
ATOM     23  C   UNL     1       5.268  -1.499   0.000  0.00  0.00    +0.000 C 
ENDBRANCH   6  22
BRANCH   7  24
ATOM     24  O   UNL     1       5.978   2.279   0.000  0.00  0.00    +0.000 OA
ATOM     25  C   UNL     1       5.268   2.700   0.000  0.00  0.00    +0.000 C 
ENDBRANCH   7  24
BRANCH   9  26
ATOM     26  O   UNL     1       8.849   1.425   0.000  0.00  0.00    +0.000 OA
ATOM     27  C   UNL     1       8.849   2.250   0.000  0.00  0.00    +0.000 C 
ENDBRANCH   9  26
BRANCH  10  28
ATOM     28  O   UNL     1       4.508  -0.244   0.000  0.00  0.00    +0.000 OA
BRANCH  28  29
ATOM     29  C   UNL     1       3.792   0.165   0.000  0.00  0.00    +0.000 C 
BRANCH  29  30
ATOM     30  C   UNL     1       3.079  -0.250   0.000  0.00  0.00    +0.000 C 
ATOM     31  C   UNL     1       2.363   0.160   0.000  0.00  0.00    +0.000 C 
ATOM     32  C   UNL     1       1.650  -0.256   0.000  0.00  0.00    +0.000 C 
ATOM     33  C   UNL     1       2.360   0.985   0.000  0.00  0.00    +0.000 C 
ENDBRANCH  29  30
ENDBRANCH  28  29
ENDBRANCH  10  28
TORSDOF 9
