REMARK  Name = 44257184
REMARK  4 active torsions:
REMARK  status: ('A' for Active; 'I' for Inactive)
REMARK    1  A    between atoms: O_2  and  C_13
REMARK    2  A    between atoms: O_2  and  C_19
REMARK    3  A    between atoms: C_12  and  C_14
REMARK    4  A    between atoms: C_15  and  C_24
REMARK                            x       y       z     vdW  Elec       q    Type
REMARK                         _______ _______ _______ _____ _____    ______ ____
ROOT
ATOM      1  O   UNL     1       7.131   1.354   0.000  0.00  0.00    +0.000 OA
ATOM      2  O   UNL     1       4.236   1.348   0.000  0.00  0.00    +0.000 OA
ATOM      3  C   UNL     1       7.137   2.213   0.000  0.00  0.00    +0.000 C 
ATOM      4  C   UNL     1       6.393   2.643   0.000  0.00  0.00    +0.000 C 
ATOM      5  C   UNL     1       5.652   2.207   0.000  0.00  0.00    +0.000 C 
ATOM      6  C   UNL     1       5.665   1.348   0.000  0.00  0.00    +0.000 A 
ATOM      7  C   UNL     1       5.665  -0.302   0.000  0.00  0.00    +0.000 A 
ATOM      8  C   UNL     1       6.380   0.936   0.000  0.00  0.00    +0.000 A 
ATOM      9  C   UNL     1       6.380   0.111   0.000  0.00  0.00    +0.000 A 
ATOM     10  C   UNL     1       4.951   0.936   0.000  0.00  0.00    +0.000 A 
ATOM     11  C   UNL     1       4.951   0.111   0.000  0.00  0.00    +0.000 A 
ENDROOT
BRANCH   3  12
ATOM     12  C   UNL     1       7.853   2.623   0.000  0.00  0.00    +0.000 A 
ATOM     13  C   UNL     1       7.856   3.448   0.000  0.00  0.00    +0.000 A 
ATOM     14  C   UNL     1       8.566   2.208   0.000  0.00  0.00    +0.000 A 
ATOM     15  C   UNL     1       8.572   3.858   0.000  0.00  0.00    +0.000 A 
ATOM     16  C   UNL     1       9.282   2.617   0.000  0.00  0.00    +0.000 A 
ATOM     17  C   UNL     1       9.285   3.442   0.000  0.00  0.00    +0.000 A 
ENDBRANCH   3  12
BRANCH   7  18
ATOM     18  O   UNL     1       5.665  -1.127   0.000  0.00  0.00    +0.000 OA
BRANCH  18  27
ATOM     19  O   UNL     1       4.236  -1.127   0.000  0.00  0.00    +0.000 OA
ATOM     20  O   UNL     1       4.236  -3.602   0.000  0.00  0.00    +0.000 OA
ATOM     21  O   UNL     1       2.808  -2.777   0.000  0.00  0.00    +0.000 OA
ATOM     22  O   UNL     1       5.665  -2.777   0.000  0.00  0.00    +0.000 OA
ATOM     23  C   UNL     1       4.236  -2.777   0.000  0.00  0.00    +0.000 C 
ATOM     24  C   UNL     1       3.522  -2.364   0.000  0.00  0.00    +0.000 C 
ATOM     25  C   UNL     1       4.951  -2.364   0.000  0.00  0.00    +0.000 C 
ATOM     26  C   UNL     1       3.522  -1.539   0.000  0.00  0.00    +0.000 C 
ATOM     27  C   UNL     1       4.951  -1.539   0.000  0.00  0.00    +0.000 C 
BRANCH  26  29
ATOM     28  O   UNL     1       2.093  -1.539   0.000  0.00  0.00    +0.000 OA
ATOM     29  C   UNL     1       2.808  -1.127   0.000  0.00  0.00    +0.000 C 
ENDBRANCH  26  29
ENDBRANCH  18  27
ENDBRANCH   7  18
TORSDOF 4
