REMARK  Name = 44257877
REMARK  9 active torsions:
REMARK  status: ('A' for Active; 'I' for Inactive)
REMARK    1  A    between atoms: O_1  and  C_20
REMARK    2  A    between atoms: O_1  and  C_22
REMARK    3  A    between atoms: O_3  and  C_21
REMARK    4  A    between atoms: O_3  and  C_30
REMARK    5  A    between atoms: O_19  and  C_52
REMARK    6  A    between atoms: C_25  and  C_33
REMARK    7  A    between atoms: C_28  and  C_36
REMARK    8  A    between atoms: C_29  and  C_37
REMARK    9  A    between atoms: C_45  and  C_47
REMARK                            x       y       z     vdW  Elec       q    Type
REMARK                         _______ _______ _______ _____ _____    ______ ____
ROOT
ATOM      1  O   UNL     1       5.665   1.542   0.000  0.00  0.00    +0.000 OA
ATOM      2  O   UNL     1       3.522   0.304   0.000  0.00  0.00    +0.000 OA
ATOM      3  O   UNL     1       3.522   1.954   0.000  0.00  0.00    +0.000 OA
ATOM      4  C   UNL     1       4.951   0.304   0.000  0.00  0.00    +0.000 C 
ATOM      5  C   UNL     1       4.236   0.717   0.000  0.00  0.00    +0.000 C 
ATOM      6  C   UNL     1       5.665   0.717   0.000  0.00  0.00    +0.000 C 
ATOM      7  C   UNL     1       4.236   1.542   0.000  0.00  0.00    +0.000 C 
ATOM      8  C   UNL     1       4.951   1.954   0.000  0.00  0.00    +0.000 C 
ENDROOT
BRANCH   6  13
ATOM      9  O   UNL     1       7.081   1.576   0.000  0.00  0.00    +0.000 OA
ATOM     10  O   UNL     1       5.665  -0.933   0.000  0.00  0.00    +0.000 OA
ATOM     11  O   UNL     1       8.523  -0.933   0.000  0.00  0.00    +0.000 OA
ATOM     12  O   UNL     1       9.269   0.302   0.000  0.00  0.00    +0.000 OA
ATOM     13  C   UNL     1       6.380   0.304   0.000  0.00  0.00    +0.000 A 
ATOM     14  C   UNL     1       7.094   0.717   0.000  0.00  0.00    +0.000 A 
ATOM     15  C   UNL     1       6.380  -0.521   0.000  0.00  0.00    +0.000 A 
ATOM     16  C   UNL     1       7.809   0.304   0.000  0.00  0.00    +0.000 A 
ATOM     17  C   UNL     1       7.094  -0.933   0.000  0.00  0.00    +0.000 A 
ATOM     18  C   UNL     1       7.809  -0.521   0.000  0.00  0.00    +0.000 A 
ATOM     19  C   UNL     1       8.559   0.722   0.000  0.00  0.00    +0.000 A 
ATOM     20  C   UNL     1       7.822   2.011   0.000  0.00  0.00    +0.000 A 
ATOM     21  C   UNL     1       8.566   1.582   0.000  0.00  0.00    +0.000 A 
BRANCH  20  22
ATOM     22  C   UNL     1       7.819   2.836   0.000  0.00  0.00    +0.000 A 
ATOM     23  C   UNL     1       8.532   3.252   0.000  0.00  0.00    +0.000 A 
ATOM     24  C   UNL     1       7.103   3.246   0.000  0.00  0.00    +0.000 A 
ATOM     25  C   UNL     1       8.528   4.077   0.000  0.00  0.00    +0.000 A 
ATOM     26  C   UNL     1       7.099   4.071   0.000  0.00  0.00    +0.000 A 
ATOM     27  C   UNL     1       7.812   4.486   0.000  0.00  0.00    +0.000 A 
BRANCH  27  28
ATOM     28  O   UNL     1       7.809   5.311   0.000  0.00  0.00    +0.000 OA
ATOM     29  C   UNL     1       8.522   5.727   0.000  0.00  0.00    +0.000 C 
ENDBRANCH  27  28
ENDBRANCH  20  22
ENDBRANCH   6  13
BRANCH   8  31
ATOM     30  O   UNL     1       4.236   3.192   0.000  0.00  0.00    +0.000 OA
ATOM     31  C   UNL     1       4.951   2.779   0.000  0.00  0.00    +0.000 C 
ENDBRANCH   8  31
BRANCH   4  32
ATOM     32  O   UNL     1       4.951  -0.521   0.000  0.00  0.00    +0.000 OA
BRANCH  32  37
ATOM     33  O   UNL     1       3.522  -0.521   0.000  0.00  0.00    +0.000 OA
ATOM     34  O   UNL     1       3.522  -2.996   0.000  0.00  0.00    +0.000 OA
ATOM     35  O   UNL     1       2.093  -2.171   0.000  0.00  0.00    +0.000 OA
ATOM     36  C   UNL     1       4.236  -1.758   0.000  0.00  0.00    +0.000 C 
ATOM     37  C   UNL     1       4.236  -0.933   0.000  0.00  0.00    +0.000 C 
ATOM     38  C   UNL     1       3.522  -2.171   0.000  0.00  0.00    +0.000 C 
ATOM     39  C   UNL     1       2.808  -1.758   0.000  0.00  0.00    +0.000 C 
ATOM     40  C   UNL     1       2.808  -0.933   0.000  0.00  0.00    +0.000 C 
BRANCH  40  42
ATOM     41  O   UNL     1       2.093   0.304   0.000  0.00  0.00    +0.000 OA
ATOM     42  C   UNL     1       2.093  -0.521   0.000  0.00  0.00    +0.000 C 
ENDBRANCH  40  42
BRANCH  36  43
ATOM     43  O   UNL     1       4.951  -2.171   0.000  0.00  0.00    +0.000 OA
BRANCH  43  48
ATOM     44  O   UNL     1       4.236  -3.408   0.000  0.00  0.00    +0.000 OA
ATOM     45  O   UNL     1       6.380  -2.996   0.000  0.00  0.00    +0.000 OA
ATOM     46  O   UNL     1       6.380  -4.646   0.000  0.00  0.00    +0.000 OA
ATOM     47  O   UNL     1       4.951  -5.471   0.000  0.00  0.00    +0.000 OA
ATOM     48  C   UNL     1       4.951  -2.996   0.000  0.00  0.00    +0.000 C 
ATOM     49  C   UNL     1       5.665  -3.408   0.000  0.00  0.00    +0.000 C 
ATOM     50  C   UNL     1       5.665  -4.233   0.000  0.00  0.00    +0.000 C 
ATOM     51  C   UNL     1       4.951  -4.646   0.000  0.00  0.00    +0.000 C 
ATOM     52  C   UNL     1       4.236  -4.233   0.000  0.00  0.00    +0.000 C 
ATOM     53  C   UNL     1       3.522  -4.646   0.000  0.00  0.00    +0.000 C 
ENDBRANCH  43  48
ENDBRANCH  36  43
ENDBRANCH  32  37
ENDBRANCH   4  32
TORSDOF 9
