REMARK  Name = 44259830
REMARK  8 active torsions:
REMARK  status: ('A' for Active; 'I' for Inactive)
REMARK    1  A    between atoms: O_2  and  C_18
REMARK    2  A    between atoms: O_2  and  C_20
REMARK    3  A    between atoms: O_7  and  C_22
REMARK    4  A    between atoms: O_9  and  C_27
REMARK    5  A    between atoms: O_11  and  C_33
REMARK    6  A    between atoms: O_13  and  C_34
REMARK    7  A    between atoms: C_17  and  C_19
REMARK    8  A    between atoms: C_23  and  C_26
REMARK                            x       y       z     vdW  Elec       q    Type
REMARK                         _______ _______ _______ _____ _____    ______ ____
ROOT
ATOM      1  C   UNL     1       6.414  -0.931   0.000  0.00  0.00    +0.000 A 
ATOM      2  C   UNL     1       5.700  -0.518   0.000  0.00  0.00    +0.000 A 
ATOM      3  C   UNL     1       7.129  -0.518   0.000  0.00  0.00    +0.000 A 
ATOM      4  C   UNL     1       5.700   0.307   0.000  0.00  0.00    +0.000 A 
ATOM      5  C   UNL     1       7.129   0.307   0.000  0.00  0.00    +0.000 A 
ATOM      6  C   UNL     1       6.414   0.719   0.000  0.00  0.00    +0.000 A 
ENDROOT
BRANCH   4  10
ATOM      7  O   UNL     1       4.985   1.544   0.000  0.00  0.00    +0.000 OA
ATOM      8  O   UNL     1       2.842   0.307   0.000  0.00  0.00    +0.000 OA
ATOM      9  O   UNL     1       2.096   1.542   0.000  0.00  0.00    +0.000 OA
ATOM     10  C   UNL     1       4.985   0.719   0.000  0.00  0.00    +0.000 A 
ATOM     11  C   UNL     1       4.271   0.307   0.000  0.00  0.00    +0.000 A 
ATOM     12  C   UNL     1       3.556   1.544   0.000  0.00  0.00    +0.000 A 
ATOM     13  C   UNL     1       4.271   1.957   0.000  0.00  0.00    +0.000 A 
ATOM     14  C   UNL     1       3.556   0.719   0.000  0.00  0.00    +0.000 A 
ATOM     15  C   UNL     1       2.806   1.963   0.000  0.00  0.00    +0.000 A 
ATOM     16  C   UNL     1       4.284   2.816   0.000  0.00  0.00    +0.000 A 
ATOM     17  C   UNL     1       2.799   2.822   0.000  0.00  0.00    +0.000 A 
ATOM     18  C   UNL     1       3.543   3.252   0.000  0.00  0.00    +0.000 A 
BRANCH  11  19
ATOM     19  O   UNL     1       4.271  -0.518   0.000  0.00  0.00    +0.000 OA
ATOM     20  C   UNL     1       3.556  -0.931   0.000  0.00  0.00    +0.000 C 
ENDBRANCH  11  19
BRANCH  17  21
ATOM     21  O   UNL     1       2.083   3.232   0.000  0.00  0.00    +0.000 OA
ATOM     22  C   UNL     1       2.080   4.057   0.000  0.00  0.00    +0.000 C 
ENDBRANCH  17  21
BRANCH  18  23
ATOM     23  O   UNL     1       3.546   4.077   0.000  0.00  0.00    +0.000 OA
ATOM     24  C   UNL     1       4.262   4.486   0.000  0.00  0.00    +0.000 C 
ENDBRANCH  18  23
ENDBRANCH   4  10
BRANCH   3  25
ATOM     25  O   UNL     1       7.843  -0.931   0.000  0.00  0.00    +0.000 OA
ATOM     26  C   UNL     1       8.558  -0.518   0.000  0.00  0.00    +0.000 C 
ENDBRANCH   3  25
BRANCH   1  27
ATOM     27  O   UNL     1       6.414  -1.756   0.000  0.00  0.00    +0.000 OA
BRANCH  27  36
ATOM     28  O   UNL     1       4.985  -1.756   0.000  0.00  0.00    +0.000 OA
ATOM     29  O   UNL     1       4.985  -4.231   0.000  0.00  0.00    +0.000 OA
ATOM     30  O   UNL     1       3.556  -3.406   0.000  0.00  0.00    +0.000 OA
ATOM     31  O   UNL     1       6.414  -3.406   0.000  0.00  0.00    +0.000 OA
ATOM     32  C   UNL     1       4.985  -3.406   0.000  0.00  0.00    +0.000 C 
ATOM     33  C   UNL     1       4.271  -2.993   0.000  0.00  0.00    +0.000 C 
ATOM     34  C   UNL     1       5.700  -2.993   0.000  0.00  0.00    +0.000 C 
ATOM     35  C   UNL     1       4.271  -2.168   0.000  0.00  0.00    +0.000 C 
ATOM     36  C   UNL     1       5.700  -2.168   0.000  0.00  0.00    +0.000 C 
BRANCH  35  38
ATOM     37  O   UNL     1       2.842  -2.168   0.000  0.00  0.00    +0.000 OA
ATOM     38  C   UNL     1       3.556  -1.756   0.000  0.00  0.00    +0.000 C 
ENDBRANCH  35  38
ENDBRANCH  27  36
ENDBRANCH   1  27
TORSDOF 8
