REMARK  Name = 14482998
REMARK  5 active torsions:
REMARK  status: ('A' for Active; 'I' for Inactive)
REMARK    1  A    between atoms: O_2  and  C_14
REMARK    2  A    between atoms: O_6  and  C_25
REMARK    3  A    between atoms: C_7  and  C_9
REMARK    4  A    between atoms: C_8  and  C_10
REMARK    5  A    between atoms: C_8  and  C_21
REMARK                            x       y       z     vdW  Elec       q    Type
REMARK                         _______ _______ _______ _____ _____    ______ ____
ROOT
ATOM      1  O   UNL     1       4.562  -2.053   0.000  0.00  0.00    +0.000 OA
ATOM      2  O   UNL     1       4.562   0.422   0.000  0.00  0.00    +0.000 OA
ATOM      3  O   UNL     1       3.120   0.451   0.000  0.00  0.00    +0.000 OA
ATOM      4  C   UNL     1       5.277  -0.815   0.000  0.00  0.00    +0.000 C 
ATOM      5  C   UNL     1       5.277  -1.640   0.000  0.00  0.00    +0.000 C 
ATOM      6  C   UNL     1       4.562  -0.403   0.000  0.00  0.00    +0.000 C 
ATOM      7  C   UNL     1       3.848  -0.815   0.000  0.00  0.00    +0.000 A 
ATOM      8  C   UNL     1       3.848  -1.640   0.000  0.00  0.00    +0.000 A 
ATOM      9  C   UNL     1       3.110  -0.374   0.000  0.00  0.00    +0.000 A 
ATOM     10  C   UNL     1       3.110  -2.081   0.000  0.00  0.00    +0.000 A 
ATOM     11  C   UNL     1       2.363  -0.798   0.000  0.00  0.00    +0.000 A 
ATOM     12  C   UNL     1       2.363  -1.657   0.000  0.00  0.00    +0.000 A 
ENDROOT
BRANCH   4  14
ATOM     13  O   UNL     1       8.135   0.835   0.000  0.00  0.00    +0.000 OA
ATOM     14  C   UNL     1       5.991  -0.403   0.000  0.00  0.00    +0.000 A 
ATOM     15  C   UNL     1       6.706   0.835   0.000  0.00  0.00    +0.000 A 
ATOM     16  C   UNL     1       5.991   0.422   0.000  0.00  0.00    +0.000 A 
ATOM     17  C   UNL     1       6.706  -0.815   0.000  0.00  0.00    +0.000 A 
ATOM     18  C   UNL     1       7.420   0.422   0.000  0.00  0.00    +0.000 A 
ATOM     19  C   UNL     1       7.420  -0.403   0.000  0.00  0.00    +0.000 A 
BRANCH  15  20
ATOM     20  C   UNL     1       6.706   1.660   0.000  0.00  0.00    +0.000 C 
ATOM     21  C   UNL     1       7.531   1.660   0.000  0.00  0.00    +0.000 C 
ATOM     22  C   UNL     1       5.881   1.660   0.000  0.00  0.00    +0.000 C 
BRANCH  20  23
ATOM     23  C   UNL     1       6.706   2.485   0.000  0.00  0.00    +0.000 C 
ATOM     24  C   UNL     1       7.420   2.897   0.000  0.00  0.00    +0.000 C 
ENDBRANCH  20  23
ENDBRANCH  15  20
BRANCH  17  25
ATOM     25  O   UNL     1       6.706  -1.640   0.000  0.00  0.00    +0.000 OA
ATOM     26  C   UNL     1       7.420  -2.053   0.000  0.00  0.00    +0.000 C 
ENDBRANCH  17  25
ENDBRANCH   4  14
BRANCH  12  27
ATOM     27  O   UNL     1       1.650  -2.072   0.000  0.00  0.00    +0.000 OA
ATOM     28  C   UNL     1       1.653  -2.897   0.000  0.00  0.00    +0.000 C 
ENDBRANCH  12  27
TORSDOF 5
