REMARK  Name = 44259620
REMARK  9 active torsions:
REMARK  status: ('A' for Active; 'I' for Inactive)
REMARK    1  A    between atoms: O_1  and  C_16
REMARK    2  A    between atoms: O_1  and  C_19
REMARK    3  A    between atoms: O_5  and  C_24
REMARK    4  A    between atoms: O_5  and  C_28
REMARK    5  A    between atoms: O_13  and  C_36
REMARK    6  A    between atoms: O_15  and  C_44
REMARK    7  A    between atoms: C_29  and  C_33
REMARK    8  A    between atoms: C_34  and  C_37
REMARK    9  A    between atoms: C_37  and  C_43
REMARK                            x       y       z     vdW  Elec       q    Type
REMARK                         _______ _______ _______ _____ _____    ______ ____
ROOT
ATOM      1  O   UNL     1       5.278   2.580   0.000  0.00  0.00    +0.000 OA
ATOM      2  O   UNL     1       5.278   0.105   0.000  0.00  0.00    +0.000 OA
ATOM      3  O   UNL     1       3.836   0.077   0.000  0.00  0.00    +0.000 OA
ATOM      4  C   UNL     1       5.993   1.343   0.000  0.00  0.00    +0.000 A 
ATOM      5  C   UNL     1       5.993   2.168   0.000  0.00  0.00    +0.000 A 
ATOM      6  C   UNL     1       5.278   0.930   0.000  0.00  0.00    +0.000 A 
ATOM      7  C   UNL     1       4.564   1.343   0.000  0.00  0.00    +0.000 A 
ATOM      8  C   UNL     1       4.564   2.168   0.000  0.00  0.00    +0.000 A 
ATOM      9  C   UNL     1       3.826   2.609   0.000  0.00  0.00    +0.000 A 
ATOM     10  C   UNL     1       3.826   0.902   0.000  0.00  0.00    +0.000 A 
ATOM     11  C   UNL     1       3.079   2.185   0.000  0.00  0.00    +0.000 A 
ATOM     12  C   UNL     1       3.079   1.326   0.000  0.00  0.00    +0.000 A 
ENDROOT
BRANCH   5  14
ATOM     13  O   UNL     1       7.422   4.643   0.000  0.00  0.00    +0.000 OA
ATOM     14  C   UNL     1       6.707   2.580   0.000  0.00  0.00    +0.000 A 
ATOM     15  C   UNL     1       6.707   3.405   0.000  0.00  0.00    +0.000 A 
ATOM     16  C   UNL     1       7.422   2.168   0.000  0.00  0.00    +0.000 A 
ATOM     17  C   UNL     1       7.422   3.818   0.000  0.00  0.00    +0.000 A 
ATOM     18  C   UNL     1       8.136   2.580   0.000  0.00  0.00    +0.000 A 
ATOM     19  C   UNL     1       8.136   3.405   0.000  0.00  0.00    +0.000 A 
BRANCH  19  20
ATOM     20  O   UNL     1       8.851   3.818   0.000  0.00  0.00    +0.000 OA
ATOM     21  C   UNL     1       8.851   4.643   0.000  0.00  0.00    +0.000 C 
ENDBRANCH  19  20
ENDBRANCH   5  14
BRANCH  11  22
ATOM     22  O   UNL     1       2.366   2.600   0.000  0.00  0.00    +0.000 OA
ATOM     23  C   UNL     1       1.650   2.191   0.000  0.00  0.00    +0.000 C 
ENDBRANCH  11  22
BRANCH   4  24
ATOM     24  O   UNL     1       6.707   0.930   0.000  0.00  0.00    +0.000 OA
BRANCH  24  32
ATOM     25  O   UNL     1       5.993  -0.307   0.000  0.00  0.00    +0.000 OA
ATOM     26  O   UNL     1       8.136  -1.545   0.000  0.00  0.00    +0.000 OA
ATOM     27  O   UNL     1       8.136   0.105   0.000  0.00  0.00    +0.000 OA
ATOM     28  C   UNL     1       6.707  -1.545   0.000  0.00  0.00    +0.000 C 
ATOM     29  C   UNL     1       7.422  -1.132   0.000  0.00  0.00    +0.000 C 
ATOM     30  C   UNL     1       5.993  -1.132   0.000  0.00  0.00    +0.000 C 
ATOM     31  C   UNL     1       7.422  -0.307   0.000  0.00  0.00    +0.000 C 
ATOM     32  C   UNL     1       6.707   0.105   0.000  0.00  0.00    +0.000 C 
ATOM     33  C   UNL     1       5.278  -1.545   0.000  0.00  0.00    +0.000 C 
BRANCH  28  34
ATOM     34  O   UNL     1       6.707  -2.370   0.000  0.00  0.00    +0.000 OA
BRANCH  34  39
ATOM     35  O   UNL     1       5.278  -2.370   0.000  0.00  0.00    +0.000 OA
ATOM     36  O   UNL     1       6.707  -4.020   0.000  0.00  0.00    +0.000 OA
ATOM     37  O   UNL     1       5.278  -4.845   0.000  0.00  0.00    +0.000 OA
ATOM     38  O   UNL     1       3.849  -4.020   0.000  0.00  0.00    +0.000 OA
ATOM     39  C   UNL     1       5.993  -2.782   0.000  0.00  0.00    +0.000 C 
ATOM     40  C   UNL     1       5.993  -3.607   0.000  0.00  0.00    +0.000 C 
ATOM     41  C   UNL     1       5.278  -4.020   0.000  0.00  0.00    +0.000 C 
ATOM     42  C   UNL     1       4.564  -3.607   0.000  0.00  0.00    +0.000 C 
ATOM     43  C   UNL     1       4.564  -2.782   0.000  0.00  0.00    +0.000 C 
ATOM     44  C   UNL     1       3.849  -2.370   0.000  0.00  0.00    +0.000 C 
ENDBRANCH  34  39
ENDBRANCH  28  34
ENDBRANCH  24  32
ENDBRANCH   4  24
BRANCH   9  45
ATOM     45  C   UNL     1       3.836   3.434   0.000  0.00  0.00    +0.000 C 
BRANCH  45  46
ATOM     46  C   UNL     1       3.126   3.855   0.000  0.00  0.00    +0.000 C 
ATOM     47  C   UNL     1       3.136   4.680   0.000  0.00  0.00    +0.000 C 
ATOM     48  C   UNL     1       2.426   5.100   0.000  0.00  0.00    +0.000 C 
ATOM     49  C   UNL     1       3.855   5.084   0.000  0.00  0.00    +0.000 C 
ENDBRANCH  45  46
ENDBRANCH   9  45
TORSDOF 9
