REMARK  Name = 44259260
REMARK  10 active torsions:
REMARK  status: ('A' for Active; 'I' for Inactive)
REMARK    1  A    between atoms: O_2  and  C_17
REMARK    2  A    between atoms: O_2  and  C_24
REMARK    3  A    between atoms: O_3  and  C_18
REMARK    4  A    between atoms: O_3  and  C_23
REMARK    5  A    between atoms: O_5  and  C_20
REMARK    6  A    between atoms: O_5  and  C_22
REMARK    7  A    between atoms: C_23  and  C_27
REMARK    8  A    between atoms: C_24  and  C_29
REMARK    9  A    between atoms: C_25  and  C_31
REMARK   10  A    between atoms: C_36  and  C_46
REMARK                            x       y       z     vdW  Elec       q    Type
REMARK                         _______ _______ _______ _____ _____    ______ ____
ROOT
ATOM      1  O   UNL     1       8.523  -0.108   0.000  0.00  0.00    +0.000 OA
ATOM      2  O   UNL     1       8.523  -2.583   0.000  0.00  0.00    +0.000 OA
ATOM      3  C   UNL     1       8.523  -1.758   0.000  0.00  0.00    +0.000 C 
ATOM      4  C   UNL     1       7.809  -1.345   0.000  0.00  0.00    +0.000 C 
ATOM      5  C   UNL     1       9.238  -1.345   0.000  0.00  0.00    +0.000 C 
ATOM      6  C   UNL     1       7.809  -0.520   0.000  0.00  0.00    +0.000 C 
ATOM      7  C   UNL     1       9.238  -0.520   0.000  0.00  0.00    +0.000 C 
ATOM      8  C   UNL     1       7.094  -0.108   0.000  0.00  0.00    +0.000 C 
ENDROOT
BRANCH   4   9
ATOM      9  O   UNL     1       7.094  -1.758   0.000  0.00  0.00    +0.000 OA
BRANCH   9  11
ATOM     10  O   UNL     1       6.380  -0.520   0.000  0.00  0.00    +0.000 OA
ATOM     11  C   UNL     1       6.380  -1.345   0.000  0.00  0.00    +0.000 C 
BRANCH  11  12
ATOM     12  C   UNL     1       5.665  -1.758   0.000  0.00  0.00    +0.000 C 
ATOM     13  C   UNL     1       4.951  -1.345   0.000  0.00  0.00    +0.000 C 
BRANCH  13  15
ATOM     14  O   UNL     1       2.093  -2.995   0.000  0.00  0.00    +0.000 OA
ATOM     15  C   UNL     1       4.236  -1.758   0.000  0.00  0.00    +0.000 A 
ATOM     16  C   UNL     1       4.236  -2.583   0.000  0.00  0.00    +0.000 A 
ATOM     17  C   UNL     1       3.522  -1.345   0.000  0.00  0.00    +0.000 A 
ATOM     18  C   UNL     1       3.522  -2.995   0.000  0.00  0.00    +0.000 A 
ATOM     19  C   UNL     1       2.808  -1.758   0.000  0.00  0.00    +0.000 A 
ATOM     20  C   UNL     1       2.808  -2.583   0.000  0.00  0.00    +0.000 A 
ENDBRANCH  13  15
ENDBRANCH  11  12
ENDBRANCH   9  11
ENDBRANCH   4   9
BRANCH   5  21
ATOM     21  O   UNL     1       9.952  -1.758   0.000  0.00  0.00    +0.000 OA
BRANCH  21  23
ATOM     22  O   UNL     1       9.238  -2.995   0.000  0.00  0.00    +0.000 OA
ATOM     23  C   UNL     1       9.952  -2.583   0.000  0.00  0.00    +0.000 C 
BRANCH  23  25
ATOM     24  O   UNL     1      12.810  -4.233   0.000  0.00  0.00    +0.000 OA
ATOM     25  C   UNL     1      10.667  -2.995   0.000  0.00  0.00    +0.000 A 
ATOM     26  C   UNL     1      11.381  -2.583   0.000  0.00  0.00    +0.000 A 
ATOM     27  C   UNL     1      10.667  -3.820   0.000  0.00  0.00    +0.000 A 
ATOM     28  C   UNL     1      12.096  -2.995   0.000  0.00  0.00    +0.000 A 
ATOM     29  C   UNL     1      11.381  -4.233   0.000  0.00  0.00    +0.000 A 
ATOM     30  C   UNL     1      12.096  -3.820   0.000  0.00  0.00    +0.000 A 
ENDBRANCH  23  25
ENDBRANCH  21  23
ENDBRANCH   5  21
BRANCH   7  31
ATOM     31  O   UNL     1       9.952  -0.108   0.000  0.00  0.00    +0.000 OA
BRANCH  31  36
ATOM     32  O   UNL     1      10.667   1.955   0.000  0.00  0.00    +0.000 OA
ATOM     33  O   UNL     1       8.523   0.717   0.000  0.00  0.00    +0.000 OA
ATOM     34  O   UNL     1       7.777   1.952   0.000  0.00  0.00    +0.000 OA
ATOM     35  O   UNL     1       9.228   4.487   0.000  0.00  0.00    +0.000 OA
ATOM     36  C   UNL     1       9.952   0.717   0.000  0.00  0.00    +0.000 A 
ATOM     37  C   UNL     1      10.667   1.130   0.000  0.00  0.00    +0.000 A 
ATOM     38  C   UNL     1       9.238   1.130   0.000  0.00  0.00    +0.000 A 
ATOM     39  C   UNL     1       9.238   1.955   0.000  0.00  0.00    +0.000 A 
ATOM     40  C   UNL     1       9.952   2.367   0.000  0.00  0.00    +0.000 A 
ATOM     41  C   UNL     1       8.487   2.373   0.000  0.00  0.00    +0.000 A 
ATOM     42  C   UNL     1       9.965   3.226   0.000  0.00  0.00    +0.000 A 
ATOM     43  C   UNL     1       8.480   3.232   0.000  0.00  0.00    +0.000 A 
ATOM     44  C   UNL     1       9.225   3.662   0.000  0.00  0.00    +0.000 A 
BRANCH  37  47
ATOM     45  O   UNL     1      13.524   1.130   0.000  0.00  0.00    +0.000 OA
ATOM     46  O   UNL     1      13.524  -0.520   0.000  0.00  0.00    +0.000 OA
ATOM     47  C   UNL     1      11.381   0.717   0.000  0.00  0.00    +0.000 A 
ATOM     48  C   UNL     1      12.096   1.130   0.000  0.00  0.00    +0.000 A 
ATOM     49  C   UNL     1      11.381  -0.108   0.000  0.00  0.00    +0.000 A 
ATOM     50  C   UNL     1      12.810   0.717   0.000  0.00  0.00    +0.000 A 
ATOM     51  C   UNL     1      12.096  -0.520   0.000  0.00  0.00    +0.000 A 
ATOM     52  C   UNL     1      12.810  -0.108   0.000  0.00  0.00    +0.000 A 
ENDBRANCH  37  47
ENDBRANCH  31  36
ENDBRANCH   7  31
TORSDOF 10
