REMARK  Name = 44258389
REMARK  6 active torsions:
REMARK  status: ('A' for Active; 'I' for Inactive)
REMARK    1  A    between atoms: O_6  and  C_20
REMARK    2  A    between atoms: O_10  and  C_31
REMARK    3  A    between atoms: O_11  and  C_33
REMARK    4  A    between atoms: C_14  and  C_17
REMARK    5  A    between atoms: C_16  and  C_18
REMARK    6  A    between atoms: C_25  and  C_28
REMARK                            x       y       z     vdW  Elec       q    Type
REMARK                         _______ _______ _______ _____ _____    ______ ____
ROOT
ATOM      1  O   UNL     1       6.380   1.741   0.000  0.00  0.00    +0.000 OA
ATOM      2  O   UNL     1       7.832  -0.762   0.000  0.00  0.00    +0.000 OA
ATOM      3  O   UNL     1       7.822   1.770   0.000  0.00  0.00    +0.000 OA
ATOM      4  C   UNL     1       5.665   0.504   0.000  0.00  0.00    +0.000 A 
ATOM      5  C   UNL     1       6.380   0.916   0.000  0.00  0.00    +0.000 A 
ATOM      6  C   UNL     1       5.665  -0.321   0.000  0.00  0.00    +0.000 A 
ATOM      7  C   UNL     1       7.094   0.504   0.000  0.00  0.00    +0.000 A 
ATOM      8  C   UNL     1       6.380  -0.734   0.000  0.00  0.00    +0.000 A 
ATOM      9  C   UNL     1       7.094  -0.321   0.000  0.00  0.00    +0.000 A 
ATOM     10  C   UNL     1       7.832   0.945   0.000  0.00  0.00    +0.000 A 
ATOM     11  C   UNL     1       8.579  -0.339   0.000  0.00  0.00    +0.000 A 
ATOM     12  C   UNL     1       8.579   0.521   0.000  0.00  0.00    +0.000 A 
ENDROOT
BRANCH   4  19
ATOM     13  O   UNL     1       4.236   0.504   0.000  0.00  0.00    +0.000 OA
ATOM     14  O   UNL     1       5.665   2.154   0.000  0.00  0.00    +0.000 OA
ATOM     15  O   UNL     1       4.236   2.979   0.000  0.00  0.00    +0.000 OA
ATOM     16  O   UNL     1       2.808   2.154   0.000  0.00  0.00    +0.000 OA
ATOM     17  C   UNL     1       4.951   1.741   0.000  0.00  0.00    +0.000 C 
ATOM     18  C   UNL     1       4.236   2.154   0.000  0.00  0.00    +0.000 C 
ATOM     19  C   UNL     1       4.951   0.916   0.000  0.00  0.00    +0.000 C 
ATOM     20  C   UNL     1       3.522   1.741   0.000  0.00  0.00    +0.000 C 
ATOM     21  C   UNL     1       3.522   0.916   0.000  0.00  0.00    +0.000 C 
BRANCH  21  23
ATOM     22  O   UNL     1       2.093   0.916   0.000  0.00  0.00    +0.000 OA
ATOM     23  C   UNL     1       2.808   0.504   0.000  0.00  0.00    +0.000 C 
ENDBRANCH  21  23
ENDBRANCH   4  19
BRANCH  11  24
ATOM     24  C   UNL     1       9.292  -0.754   0.000  0.00  0.00    +0.000 A 
ATOM     25  C   UNL     1       9.289  -1.579   0.000  0.00  0.00    +0.000 A 
ATOM     26  C   UNL     1      10.008  -0.344   0.000  0.00  0.00    +0.000 A 
ATOM     27  C   UNL     1      10.002  -1.994   0.000  0.00  0.00    +0.000 A 
ATOM     28  C   UNL     1      10.721  -0.759   0.000  0.00  0.00    +0.000 A 
ATOM     29  C   UNL     1      10.718  -1.584   0.000  0.00  0.00    +0.000 A 
BRANCH  27  30
ATOM     30  O   UNL     1       9.999  -2.819   0.000  0.00  0.00    +0.000 OA
ATOM     31  C   UNL     1      10.712  -3.234   0.000  0.00  0.00    +0.000 C 
ENDBRANCH  27  30
BRANCH  29  32
ATOM     32  O   UNL     1      11.431  -2.000   0.000  0.00  0.00    +0.000 OA
ATOM     33  C   UNL     1      12.147  -1.590   0.000  0.00  0.00    +0.000 C 
ENDBRANCH  29  32
ENDBRANCH  11  24
BRANCH   6  34
ATOM     34  O   UNL     1       4.951  -0.734   0.000  0.00  0.00    +0.000 OA
ATOM     35  C   UNL     1       4.951  -1.559   0.000  0.00  0.00    +0.000 C 
ENDBRANCH   6  34
TORSDOF 6
