REMARK  Name = 44259701
REMARK  8 active torsions:
REMARK  status: ('A' for Active; 'I' for Inactive)
REMARK    1  A    between atoms: O_2  and  C_17
REMARK    2  A    between atoms: O_2  and  C_19
REMARK    3  A    between atoms: O_9  and  C_25
REMARK    4  A    between atoms: O_10  and  C_30
REMARK    5  A    between atoms: O_11  and  C_31
REMARK    6  A    between atoms: O_12  and  C_33
REMARK    7  A    between atoms: C_16  and  C_18
REMARK    8  A    between atoms: C_20  and  C_24
REMARK                            x       y       z     vdW  Elec       q    Type
REMARK                         _______ _______ _______ _____ _____    ______ ____
ROOT
ATOM      1  O   UNL     1       6.380   0.923   0.000  0.00  0.00    +0.000 OA
ATOM      2  O   UNL     1       4.236  -0.315   0.000  0.00  0.00    +0.000 OA
ATOM      3  C   UNL     1       5.665  -0.315   0.000  0.00  0.00    +0.000 A 
ATOM      4  C   UNL     1       6.380   0.098   0.000  0.00  0.00    +0.000 A 
ATOM      5  C   UNL     1       4.951   0.098   0.000  0.00  0.00    +0.000 A 
ATOM      6  C   UNL     1       4.951   0.923   0.000  0.00  0.00    +0.000 A 
ATOM      7  C   UNL     1       5.665   1.335   0.000  0.00  0.00    +0.000 A 
ATOM      8  C   UNL     1       4.200   1.341   0.000  0.00  0.00    +0.000 A 
ATOM      9  C   UNL     1       5.679   2.195   0.000  0.00  0.00    +0.000 A 
ATOM     10  C   UNL     1       4.194   2.200   0.000  0.00  0.00    +0.000 A 
ATOM     11  C   UNL     1       4.938   2.630   0.000  0.00  0.00    +0.000 A 
ENDROOT
BRANCH   4  12
ATOM     12  C   UNL     1       7.094  -0.315   0.000  0.00  0.00    +0.000 A 
ATOM     13  C   UNL     1       7.809   0.098   0.000  0.00  0.00    +0.000 A 
ATOM     14  C   UNL     1       7.094  -1.140   0.000  0.00  0.00    +0.000 A 
ATOM     15  C   UNL     1       8.523  -0.315   0.000  0.00  0.00    +0.000 A 
ATOM     16  C   UNL     1       7.809  -1.552   0.000  0.00  0.00    +0.000 A 
ATOM     17  C   UNL     1       8.523  -1.140   0.000  0.00  0.00    +0.000 A 
BRANCH  15  18
ATOM     18  O   UNL     1       9.238   0.098   0.000  0.00  0.00    +0.000 OA
ATOM     19  C   UNL     1       9.238   0.923   0.000  0.00  0.00    +0.000 C 
ENDBRANCH  15  18
BRANCH  17  20
ATOM     20  O   UNL     1       9.238  -1.552   0.000  0.00  0.00    +0.000 OA
ATOM     21  C   UNL     1       9.238  -2.377   0.000  0.00  0.00    +0.000 C 
ENDBRANCH  17  20
ENDBRANCH   4  12
BRANCH   8  22
ATOM     22  O   UNL     1       3.490   0.920   0.000  0.00  0.00    +0.000 OA
ATOM     23  C   UNL     1       2.771   1.325   0.000  0.00  0.00    +0.000 C 
ENDBRANCH   8  22
BRANCH  11  24
ATOM     24  O   UNL     1       4.941   3.455   0.000  0.00  0.00    +0.000 OA
ATOM     25  C   UNL     1       4.228   3.870   0.000  0.00  0.00    +0.000 C 
ENDBRANCH  11  24
BRANCH   3  26
ATOM     26  O   UNL     1       5.665  -1.140   0.000  0.00  0.00    +0.000 OA
BRANCH  26  35
ATOM     27  O   UNL     1       4.236  -1.140   0.000  0.00  0.00    +0.000 OA
ATOM     28  O   UNL     1       4.236  -3.615   0.000  0.00  0.00    +0.000 OA
ATOM     29  O   UNL     1       2.808  -2.790   0.000  0.00  0.00    +0.000 OA
ATOM     30  O   UNL     1       5.665  -2.790   0.000  0.00  0.00    +0.000 OA
ATOM     31  C   UNL     1       4.236  -2.790   0.000  0.00  0.00    +0.000 C 
ATOM     32  C   UNL     1       3.522  -2.377   0.000  0.00  0.00    +0.000 C 
ATOM     33  C   UNL     1       4.951  -2.377   0.000  0.00  0.00    +0.000 C 
ATOM     34  C   UNL     1       3.522  -1.552   0.000  0.00  0.00    +0.000 C 
ATOM     35  C   UNL     1       4.951  -1.552   0.000  0.00  0.00    +0.000 C 
BRANCH  34  37
ATOM     36  O   UNL     1       2.093  -1.552   0.000  0.00  0.00    +0.000 OA
ATOM     37  C   UNL     1       2.808  -1.140   0.000  0.00  0.00    +0.000 C 
ENDBRANCH  34  37
ENDBRANCH  26  35
ENDBRANCH   3  26
TORSDOF 8
