REMARK  Name = 44257755
REMARK  8 active torsions:
REMARK  status: ('A' for Active; 'I' for Inactive)
REMARK    1  A    between atoms: O_1  and  C_20
REMARK    2  A    between atoms: O_1  and  C_25
REMARK    3  A    between atoms: O_13  and  C_40
REMARK    4  A    between atoms: O_13  and  C_48
REMARK    5  A    between atoms: C_22  and  C_30
REMARK    6  A    between atoms: C_24  and  C_31
REMARK    7  A    between atoms: C_39  and  C_44
REMARK    8  A    between atoms: C_45  and  C_47
REMARK                            x       y       z     vdW  Elec       q    Type
REMARK                         _______ _______ _______ _____ _____    ______ ____
ROOT
ATOM      1  O   UNL     1       7.081  -0.823   0.000  0.00  0.00    +0.000 OA
ATOM      2  O   UNL     1       5.665  -3.332   0.000  0.00  0.00    +0.000 OA
ATOM      3  O   UNL     1       8.523  -3.332   0.000  0.00  0.00    +0.000 OA
ATOM      4  O   UNL     1       9.269  -2.097   0.000  0.00  0.00    +0.000 OA
ATOM      5  C   UNL     1       6.380  -2.095   0.000  0.00  0.00    +0.000 A 
ATOM      6  C   UNL     1       7.094  -1.682   0.000  0.00  0.00    +0.000 A 
ATOM      7  C   UNL     1       6.380  -2.920   0.000  0.00  0.00    +0.000 A 
ATOM      8  C   UNL     1       7.809  -2.095   0.000  0.00  0.00    +0.000 A 
ATOM      9  C   UNL     1       7.094  -3.332   0.000  0.00  0.00    +0.000 A 
ATOM     10  C   UNL     1       7.809  -2.920   0.000  0.00  0.00    +0.000 A 
ATOM     11  C   UNL     1       8.559  -1.677   0.000  0.00  0.00    +0.000 A 
ATOM     12  C   UNL     1       7.822  -0.388   0.000  0.00  0.00    +0.000 A 
ATOM     13  C   UNL     1       8.566  -0.817   0.000  0.00  0.00    +0.000 A 
ENDROOT
BRANCH   5  19
ATOM     14  O   UNL     1       5.665  -0.857   0.000  0.00  0.00    +0.000 OA
ATOM     15  O   UNL     1       3.522  -2.095   0.000  0.00  0.00    +0.000 OA
ATOM     16  O   UNL     1       3.522  -0.445   0.000  0.00  0.00    +0.000 OA
ATOM     17  C   UNL     1       4.951  -2.095   0.000  0.00  0.00    +0.000 C 
ATOM     18  C   UNL     1       4.236  -1.682   0.000  0.00  0.00    +0.000 C 
ATOM     19  C   UNL     1       5.665  -1.682   0.000  0.00  0.00    +0.000 C 
ATOM     20  C   UNL     1       4.236  -0.857   0.000  0.00  0.00    +0.000 C 
ATOM     21  C   UNL     1       4.951  -0.445   0.000  0.00  0.00    +0.000 C 
BRANCH  21  23
ATOM     22  O   UNL     1       4.236   0.793   0.000  0.00  0.00    +0.000 OA
ATOM     23  C   UNL     1       4.951   0.380   0.000  0.00  0.00    +0.000 C 
ENDBRANCH  21  23
BRANCH  17  24
ATOM     24  O   UNL     1       4.951  -2.920   0.000  0.00  0.00    +0.000 OA
BRANCH  24  29
ATOM     25  O   UNL     1       3.522  -2.920   0.000  0.00  0.00    +0.000 OA
ATOM     26  O   UNL     1       4.951  -4.570   0.000  0.00  0.00    +0.000 OA
ATOM     27  O   UNL     1       3.522  -5.395   0.000  0.00  0.00    +0.000 OA
ATOM     28  O   UNL     1       2.093  -4.570   0.000  0.00  0.00    +0.000 OA
ATOM     29  C   UNL     1       4.236  -3.332   0.000  0.00  0.00    +0.000 C 
ATOM     30  C   UNL     1       4.236  -4.157   0.000  0.00  0.00    +0.000 C 
ATOM     31  C   UNL     1       3.522  -4.570   0.000  0.00  0.00    +0.000 C 
ATOM     32  C   UNL     1       2.808  -4.157   0.000  0.00  0.00    +0.000 C 
ATOM     33  C   UNL     1       2.808  -3.332   0.000  0.00  0.00    +0.000 C 
ATOM     34  C   UNL     1       2.093  -2.920   0.000  0.00  0.00    +0.000 C 
ENDBRANCH  24  29
ENDBRANCH  17  24
ENDBRANCH   5  19
BRANCH  12  35
ATOM     35  C   UNL     1       7.819   0.438   0.000  0.00  0.00    +0.000 A 
ATOM     36  C   UNL     1       7.812   2.087   0.000  0.00  0.00    +0.000 A 
ATOM     37  C   UNL     1       8.532   0.853   0.000  0.00  0.00    +0.000 A 
ATOM     38  C   UNL     1       7.103   0.847   0.000  0.00  0.00    +0.000 A 
ATOM     39  C   UNL     1       8.528   1.678   0.000  0.00  0.00    +0.000 A 
ATOM     40  C   UNL     1       7.099   1.672   0.000  0.00  0.00    +0.000 A 
BRANCH  36  41
ATOM     41  O   UNL     1       7.809   2.913   0.000  0.00  0.00    +0.000 OA
BRANCH  41  50
ATOM     42  O   UNL     1       9.238   2.918   0.000  0.00  0.00    +0.000 OA
ATOM     43  O   UNL     1       9.229   5.393   0.000  0.00  0.00    +0.000 OA
ATOM     44  O   UNL     1      10.661   4.574   0.000  0.00  0.00    +0.000 OA
ATOM     45  O   UNL     1       7.803   4.562   0.000  0.00  0.00    +0.000 OA
ATOM     46  C   UNL     1       9.232   4.568   0.000  0.00  0.00    +0.000 C 
ATOM     47  C   UNL     1       9.948   4.158   0.000  0.00  0.00    +0.000 C 
ATOM     48  C   UNL     1       8.519   4.153   0.000  0.00  0.00    +0.000 C 
ATOM     49  C   UNL     1       9.951   3.333   0.000  0.00  0.00    +0.000 C 
ATOM     50  C   UNL     1       8.522   3.328   0.000  0.00  0.00    +0.000 C 
BRANCH  49  52
ATOM     51  O   UNL     1      11.380   3.339   0.000  0.00  0.00    +0.000 OA
ATOM     52  C   UNL     1      10.667   2.924   0.000  0.00  0.00    +0.000 C 
ENDBRANCH  49  52
ENDBRANCH  41  50
ENDBRANCH  36  41
ENDBRANCH  12  35
TORSDOF 8
