REMARK  Name = 42608066
REMARK  8 active torsions:
REMARK  status: ('A' for Active; 'I' for Inactive)
REMARK    1  A    between atoms: O_1  and  C_17
REMARK    2  A    between atoms: O_1  and  C_20
REMARK    3  A    between atoms: O_5  and  C_26
REMARK    4  A    between atoms: O_5  and  C_29
REMARK    5  A    between atoms: O_13  and  C_35
REMARK    6  A    between atoms: C_19  and  C_27
REMARK    7  A    between atoms: C_25  and  C_28
REMARK    8  A    between atoms: C_34  and  C_38
REMARK                            x       y       z     vdW  Elec       q    Type
REMARK                         _______ _______ _______ _____ _____    ______ ____
ROOT
ATOM      1  O   UNL     1       5.665  -0.230   0.000  0.00  0.00    +0.000 OA
ENDROOT
BRANCH   1   4
ATOM      2  O   UNL     1       4.202   2.288   0.000  0.00  0.00    +0.000 OA
ATOM      3  O   UNL     1       2.053   1.059   0.000  0.00  0.00    +0.000 OA
ATOM      4  C   UNL     1       4.951   0.183   0.000  0.00  0.00    +0.000 A 
ATOM      5  C   UNL     1       4.947   1.042   0.000  0.00  0.00    +0.000 A 
ATOM      6  C   UNL     1       4.205  -0.244   0.000  0.00  0.00    +0.000 A 
ATOM      7  C   UNL     1       4.198   1.463   0.000  0.00  0.00    +0.000 A 
ATOM      8  C   UNL     1       3.482   1.053   0.000  0.00  0.00    +0.000 A 
ATOM      9  C   UNL     1       3.489   2.703   0.000  0.00  0.00    +0.000 C 
ATOM     10  C   UNL     1       3.466   0.194   0.000  0.00  0.00    +0.000 A 
ATOM     11  C   UNL     1       2.773   2.293   0.000  0.00  0.00    +0.000 C 
ATOM     12  C   UNL     1       2.769   1.468   0.000  0.00  0.00    +0.000 C 
BRANCH   9  15
ATOM     13  O   UNL     1       4.927   5.173   0.000  0.00  0.00    +0.000 OA
ATOM     14  O   UNL     1       3.502   6.003   0.000  0.00  0.00    +0.000 OA
ATOM     15  C   UNL     1       3.492   3.528   0.000  0.00  0.00    +0.000 A 
ATOM     16  C   UNL     1       4.208   3.938   0.000  0.00  0.00    +0.000 A 
ATOM     17  C   UNL     1       2.779   3.943   0.000  0.00  0.00    +0.000 A 
ATOM     18  C   UNL     1       4.211   4.763   0.000  0.00  0.00    +0.000 A 
ATOM     19  C   UNL     1       2.782   4.769   0.000  0.00  0.00    +0.000 A 
ATOM     20  C   UNL     1       3.498   5.178   0.000  0.00  0.00    +0.000 A 
ENDBRANCH   9  15
BRANCH  10  21
ATOM     21  O   UNL     1       2.745  -0.207   0.000  0.00  0.00    +0.000 OA
ATOM     22  C   UNL     1       2.732  -1.032   0.000  0.00  0.00    +0.000 C 
ENDBRANCH  10  21
ENDBRANCH   1   4
BRANCH   1  30
ATOM     23  O   UNL     1       4.951  -1.467   0.000  0.00  0.00    +0.000 OA
ATOM     24  O   UNL     1       7.094  -2.705   0.000  0.00  0.00    +0.000 OA
ATOM     25  O   UNL     1       7.094  -1.055   0.000  0.00  0.00    +0.000 OA
ATOM     26  C   UNL     1       5.665  -2.705   0.000  0.00  0.00    +0.000 C 
ATOM     27  C   UNL     1       6.380  -2.292   0.000  0.00  0.00    +0.000 C 
ATOM     28  C   UNL     1       4.951  -2.292   0.000  0.00  0.00    +0.000 C 
ATOM     29  C   UNL     1       6.380  -1.467   0.000  0.00  0.00    +0.000 C 
ATOM     30  C   UNL     1       5.665  -1.055   0.000  0.00  0.00    +0.000 C 
BRANCH  28  32
ATOM     31  O   UNL     1       3.522  -2.292   0.000  0.00  0.00    +0.000 OA
ATOM     32  C   UNL     1       4.236  -2.705   0.000  0.00  0.00    +0.000 C 
ENDBRANCH  28  32
BRANCH  26  33
ATOM     33  O   UNL     1       5.665  -3.530   0.000  0.00  0.00    +0.000 OA
BRANCH  33  38
ATOM     34  O   UNL     1       4.236  -3.530   0.000  0.00  0.00    +0.000 OA
ATOM     35  O   UNL     1       5.665  -5.180   0.000  0.00  0.00    +0.000 OA
ATOM     36  O   UNL     1       4.236  -6.005   0.000  0.00  0.00    +0.000 OA
ATOM     37  O   UNL     1       2.808  -5.180   0.000  0.00  0.00    +0.000 OA
ATOM     38  C   UNL     1       4.951  -3.942   0.000  0.00  0.00    +0.000 C 
ATOM     39  C   UNL     1       4.951  -4.767   0.000  0.00  0.00    +0.000 C 
ATOM     40  C   UNL     1       4.236  -5.180   0.000  0.00  0.00    +0.000 C 
ATOM     41  C   UNL     1       3.522  -4.767   0.000  0.00  0.00    +0.000 C 
ATOM     42  C   UNL     1       3.522  -3.942   0.000  0.00  0.00    +0.000 C 
BRANCH  42  44
ATOM     43  O   UNL     1       2.093  -3.942   0.000  0.00  0.00    +0.000 OA
ATOM     44  C   UNL     1       2.808  -3.530   0.000  0.00  0.00    +0.000 C 
ENDBRANCH  42  44
ENDBRANCH  33  38
ENDBRANCH  26  33
ENDBRANCH   1  30
TORSDOF 8
