REMARK  Name = 44257128
REMARK  7 active torsions:
REMARK  status: ('A' for Active; 'I' for Inactive)
REMARK    1  A    between atoms: O_2  and  C_18
REMARK    2  A    between atoms: O_2  and  C_25
REMARK    3  A    between atoms: O_7  and  C_19
REMARK    4  A    between atoms: O_7  and  C_32
REMARK    5  A    between atoms: O_9  and  C_27
REMARK    6  A    between atoms: C_17  and  C_23
REMARK    7  A    between atoms: C_20  and  C_26
REMARK                            x       y       z     vdW  Elec       q    Type
REMARK                         _______ _______ _______ _____ _____    ______ ____
ROOT
ATOM      1  O   UNL     1       7.117   0.309   0.000  0.00  0.00    +0.000 OA
ATOM      2  O   UNL     1       4.205   0.323   0.000  0.00  0.00    +0.000 OA
ATOM      3  C   UNL     1       7.846   1.538   0.000  0.00  0.00    +0.000 C 
ATOM      4  C   UNL     1       7.837   0.714   0.000  0.00  0.00    +0.000 C 
ATOM      5  C   UNL     1       7.137   1.959   0.000  0.00  0.00    +0.000 C 
ATOM      6  C   UNL     1       6.417   1.555   0.000  0.00  0.00    +0.000 A 
ATOM      7  C   UNL     1       6.408   0.730   0.000  0.00  0.00    +0.000 A 
ATOM      8  C   UNL     1       5.665   0.297   0.000  0.00  0.00    +0.000 A 
ATOM      9  C   UNL     1       5.685   2.005   0.000  0.00  0.00    +0.000 A 
ATOM     10  C   UNL     1       4.923   0.730   0.000  0.00  0.00    +0.000 A 
ATOM     11  C   UNL     1       4.933   1.589   0.000  0.00  0.00    +0.000 A 
ENDROOT
BRANCH   4  14
ATOM     12  O   UNL     1       9.237  -1.778   0.000  0.00  0.00    +0.000 OA
ATOM     13  O   UNL     1      10.675  -0.970   0.000  0.00  0.00    +0.000 OA
ATOM     14  C   UNL     1       8.546   0.293   0.000  0.00  0.00    +0.000 A 
ATOM     15  C   UNL     1       8.537  -0.532   0.000  0.00  0.00    +0.000 A 
ATOM     16  C   UNL     1       9.266   0.697   0.000  0.00  0.00    +0.000 A 
ATOM     17  C   UNL     1       9.246  -0.953   0.000  0.00  0.00    +0.000 A 
ATOM     18  C   UNL     1       9.975   0.276   0.000  0.00  0.00    +0.000 A 
ATOM     19  C   UNL     1       9.966  -0.549   0.000  0.00  0.00    +0.000 A 
ENDBRANCH   4  14
BRANCH   9  20
ATOM     20  O   UNL     1       5.704   2.829   0.000  0.00  0.00    +0.000 OA
ATOM     21  C   UNL     1       4.999   3.258   0.000  0.00  0.00    +0.000 C 
ENDBRANCH   9  20
BRANCH   8  22
ATOM     22  O   UNL     1       5.665  -0.527   0.000  0.00  0.00    +0.000 OA
BRANCH  22  31
ATOM     23  O   UNL     1       4.236  -0.527   0.000  0.00  0.00    +0.000 OA
ATOM     24  O   UNL     1       4.236  -3.002   0.000  0.00  0.00    +0.000 OA
ATOM     25  O   UNL     1       2.808  -2.178   0.000  0.00  0.00    +0.000 OA
ATOM     26  O   UNL     1       5.665  -2.178   0.000  0.00  0.00    +0.000 OA
ATOM     27  C   UNL     1       4.236  -2.178   0.000  0.00  0.00    +0.000 C 
ATOM     28  C   UNL     1       3.522  -1.765   0.000  0.00  0.00    +0.000 C 
ATOM     29  C   UNL     1       4.951  -1.765   0.000  0.00  0.00    +0.000 C 
ATOM     30  C   UNL     1       3.522  -0.940   0.000  0.00  0.00    +0.000 C 
ATOM     31  C   UNL     1       4.951  -0.940   0.000  0.00  0.00    +0.000 C 
BRANCH  30  33
ATOM     32  O   UNL     1       2.093  -0.940   0.000  0.00  0.00    +0.000 OA
ATOM     33  C   UNL     1       2.808  -0.527   0.000  0.00  0.00    +0.000 C 
ENDBRANCH  30  33
ENDBRANCH  22  31
ENDBRANCH   8  22
BRANCH   3  34
ATOM     34  O   UNL     1       8.566   1.943   0.000  0.00  0.00    +0.000 OA
BRANCH  34  36
ATOM     35  O   UNL     1       7.865   3.188   0.000  0.00  0.00    +0.000 OA
ATOM     36  C   UNL     1       8.575   2.768   0.000  0.00  0.00    +0.000 C 
ATOM     37  C   UNL     1       9.294   3.172   0.000  0.00  0.00    +0.000 C 
ENDBRANCH  34  36
ENDBRANCH   3  34
TORSDOF 7
