REMARK  Name = 44258550
REMARK  10 active torsions:
REMARK  status: ('A' for Active; 'I' for Inactive)
REMARK    1  A    between atoms: O_2  and  C_15
REMARK    2  A    between atoms: O_2  and  C_20
REMARK    3  A    between atoms: O_3  and  C_17
REMARK    4  A    between atoms: O_3  and  C_19
REMARK    5  A    between atoms: O_9  and  C_33
REMARK    6  A    between atoms: O_11  and  C_36
REMARK    7  A    between atoms: C_16  and  C_18
REMARK    8  A    between atoms: C_20  and  C_24
REMARK    9  A    between atoms: C_21  and  C_23
REMARK   10  A    between atoms: C_31  and  C_35
REMARK                            x       y       z     vdW  Elec       q    Type
REMARK                         _______ _______ _______ _____ _____    ______ ____
ROOT
ATOM      1  O   UNL     1       5.222   1.444   0.000  0.00  0.00    +0.000 OA
ENDROOT
BRANCH   1   9
ATOM      2  O   UNL     1       3.793   1.444   0.000  0.00  0.00    +0.000 OA
ATOM      3  O   UNL     1       3.793  -1.031   0.000  0.00  0.00    +0.000 OA
ATOM      4  O   UNL     1       2.364  -0.206   0.000  0.00  0.00    +0.000 OA
ATOM      5  C   UNL     1       3.793  -0.206   0.000  0.00  0.00    +0.000 C 
ATOM      6  C   UNL     1       3.079   0.206   0.000  0.00  0.00    +0.000 C 
ATOM      7  C   UNL     1       4.508   0.206   0.000  0.00  0.00    +0.000 C 
ATOM      8  C   UNL     1       3.079   1.031   0.000  0.00  0.00    +0.000 C 
ATOM      9  C   UNL     1       4.508   1.031   0.000  0.00  0.00    +0.000 C 
BRANCH   8  11
ATOM     10  O   UNL     1       1.650   1.031   0.000  0.00  0.00    +0.000 OA
ATOM     11  C   UNL     1       2.364   1.444   0.000  0.00  0.00    +0.000 C 
ENDBRANCH   8  11
BRANCH   7  12
ATOM     12  O   UNL     1       5.222  -0.206   0.000  0.00  0.00    +0.000 OA
BRANCH  12  14
ATOM     13  O   UNL     1       4.508  -1.444   0.000  0.00  0.00    +0.000 OA
ATOM     14  C   UNL     1       5.222  -1.031   0.000  0.00  0.00    +0.000 C 
BRANCH  14  15
ATOM     15  C   UNL     1       5.937  -1.444   0.000  0.00  0.00    +0.000 C 
ATOM     16  C   UNL     1       5.937  -2.269   0.000  0.00  0.00    +0.000 C 
BRANCH  16  17
ATOM     17  C   UNL     1       6.651  -2.681   0.000  0.00  0.00    +0.000 A 
ATOM     18  C   UNL     1       7.366  -2.269   0.000  0.00  0.00    +0.000 A 
ATOM     19  C   UNL     1       6.651  -3.506   0.000  0.00  0.00    +0.000 A 
ATOM     20  C   UNL     1       8.080  -2.681   0.000  0.00  0.00    +0.000 A 
ATOM     21  C   UNL     1       7.366  -3.919   0.000  0.00  0.00    +0.000 A 
ATOM     22  C   UNL     1       8.080  -3.506   0.000  0.00  0.00    +0.000 A 
ENDBRANCH  16  17
ENDBRANCH  14  15
ENDBRANCH  12  14
ENDBRANCH   7  12
ENDBRANCH   1   9
BRANCH   1  23
ATOM     23  C   UNL     1       5.222   2.269   0.000  0.00  0.00    +0.000 A 
ATOM     24  C   UNL     1       5.937   2.681   0.000  0.00  0.00    +0.000 A 
ATOM     25  C   UNL     1       4.508   2.681   0.000  0.00  0.00    +0.000 A 
ATOM     26  C   UNL     1       5.937   3.506   0.000  0.00  0.00    +0.000 A 
ATOM     27  C   UNL     1       4.508   3.506   0.000  0.00  0.00    +0.000 A 
ATOM     28  C   UNL     1       5.222   3.919   0.000  0.00  0.00    +0.000 A 
BRANCH  24  32
ATOM     29  O   UNL     1       7.397   2.696   0.000  0.00  0.00    +0.000 OA
ATOM     30  O   UNL     1       7.416   0.163   0.000  0.00  0.00    +0.000 OA
ATOM     31  O   UNL     1       8.859   0.198   0.000  0.00  0.00    +0.000 OA
ATOM     32  C   UNL     1       6.651   2.269   0.000  0.00  0.00    +0.000 A 
ATOM     33  C   UNL     1       6.655   1.409   0.000  0.00  0.00    +0.000 A 
ATOM     34  C   UNL     1       8.136   2.257   0.000  0.00  0.00    +0.000 A 
ATOM     35  C   UNL     1       8.139   1.432   0.000  0.00  0.00    +0.000 A 
ATOM     36  C   UNL     1       7.404   0.988   0.000  0.00  0.00    +0.000 A 
ATOM     37  C   UNL     1       8.849   2.673   0.000  0.00  0.00    +0.000 A 
ATOM     38  C   UNL     1       8.856   1.023   0.000  0.00  0.00    +0.000 A 
ATOM     39  C   UNL     1       9.565   2.263   0.000  0.00  0.00    +0.000 A 
ATOM     40  C   UNL     1       9.568   1.438   0.000  0.00  0.00    +0.000 A 
BRANCH  37  41
ATOM     41  O   UNL     1       8.846   3.498   0.000  0.00  0.00    +0.000 OA
ATOM     42  C   UNL     1       9.559   3.913   0.000  0.00  0.00    +0.000 C 
ENDBRANCH  37  41
BRANCH  39  43
ATOM     43  O   UNL     1      10.278   2.678   0.000  0.00  0.00    +0.000 OA
ATOM     44  C   UNL     1      10.994   2.268   0.000  0.00  0.00    +0.000 C 
ENDBRANCH  39  43
ENDBRANCH  24  32
ENDBRANCH   1  23
TORSDOF 10
