REMARK  Name = 44258002
REMARK  9 active torsions:
REMARK  status: ('A' for Active; 'I' for Inactive)
REMARK    1  A    between atoms: O_2  and  C_26
REMARK    2  A    between atoms: O_2  and  C_29
REMARK    3  A    between atoms: O_4  and  C_24
REMARK    4  A    between atoms: O_4  and  C_34
REMARK    5  A    between atoms: O_7  and  C_25
REMARK    6  A    between atoms: O_7  and  C_33
REMARK    7  A    between atoms: C_21  and  C_29
REMARK    8  A    between atoms: C_34  and  C_37
REMARK    9  A    between atoms: C_35  and  C_39
REMARK                            x       y       z     vdW  Elec       q    Type
REMARK                         _______ _______ _______ _____ _____    ______ ____
ROOT
ATOM      1  O   UNL     1       7.094   0.177   0.000  0.00  0.00    +0.000 OA
ATOM      2  O   UNL     1       5.665  -1.473   0.000  0.00  0.00    +0.000 OA
ATOM      3  O   UNL     1       7.094  -2.298   0.000  0.00  0.00    +0.000 OA
ATOM      4  C   UNL     1       6.380  -0.236   0.000  0.00  0.00    +0.000 C 
ATOM      5  C   UNL     1       6.380  -1.061   0.000  0.00  0.00    +0.000 C 
ATOM      6  C   UNL     1       7.094  -1.473   0.000  0.00  0.00    +0.000 C 
ATOM      7  C   UNL     1       7.809  -1.061   0.000  0.00  0.00    +0.000 C 
ATOM      8  C   UNL     1       7.809  -0.236   0.000  0.00  0.00    +0.000 C 
ENDROOT
BRANCH   7   9
ATOM      9  O   UNL     1       8.523  -1.473   0.000  0.00  0.00    +0.000 OA
BRANCH   9  11
ATOM     10  O   UNL     1       7.809  -2.711   0.000  0.00  0.00    +0.000 OA
ATOM     11  C   UNL     1       8.523  -2.298   0.000  0.00  0.00    +0.000 C 
BRANCH  11  15
ATOM     12  O   UNL     1      11.381  -2.298   0.000  0.00  0.00    +0.000 OA
ATOM     13  O   UNL     1       9.952  -4.773   0.000  0.00  0.00    +0.000 OA
ATOM     14  O   UNL     1      11.381  -3.948   0.000  0.00  0.00    +0.000 OA
ATOM     15  C   UNL     1       9.238  -2.711   0.000  0.00  0.00    +0.000 A 
ATOM     16  C   UNL     1       9.238  -3.536   0.000  0.00  0.00    +0.000 A 
ATOM     17  C   UNL     1       9.952  -2.298   0.000  0.00  0.00    +0.000 A 
ATOM     18  C   UNL     1      10.667  -2.711   0.000  0.00  0.00    +0.000 A 
ATOM     19  C   UNL     1       9.952  -3.948   0.000  0.00  0.00    +0.000 A 
ATOM     20  C   UNL     1      10.667  -3.536   0.000  0.00  0.00    +0.000 A 
ENDBRANCH  11  15
ENDBRANCH   9  11
ENDBRANCH   7   9
BRANCH   8  21
ATOM     21  O   UNL     1       8.523   0.177   0.000  0.00  0.00    +0.000 OA
BRANCH  21  26
ATOM     22  O   UNL     1       9.238   2.239   0.000  0.00  0.00    +0.000 OA
ATOM     23  O   UNL     1       7.094   1.002   0.000  0.00  0.00    +0.000 OA
ATOM     24  O   UNL     1       6.348   2.237   0.000  0.00  0.00    +0.000 OA
ATOM     25  O   UNL     1       7.799   4.771   0.000  0.00  0.00    +0.000 OA
ATOM     26  C   UNL     1       8.523   1.002   0.000  0.00  0.00    +0.000 A 
ATOM     27  C   UNL     1       9.238   1.414   0.000  0.00  0.00    +0.000 A 
ATOM     28  C   UNL     1       7.809   1.414   0.000  0.00  0.00    +0.000 A 
ATOM     29  C   UNL     1       7.809   2.239   0.000  0.00  0.00    +0.000 A 
ATOM     30  C   UNL     1       8.523   2.652   0.000  0.00  0.00    +0.000 A 
ATOM     31  C   UNL     1       7.058   2.658   0.000  0.00  0.00    +0.000 A 
ATOM     32  C   UNL     1       8.536   3.511   0.000  0.00  0.00    +0.000 A 
ATOM     33  C   UNL     1       7.051   3.517   0.000  0.00  0.00    +0.000 A 
ATOM     34  C   UNL     1       7.796   3.946   0.000  0.00  0.00    +0.000 A 
BRANCH  27  37
ATOM     35  O   UNL     1      12.096   1.414   0.000  0.00  0.00    +0.000 OA
ATOM     36  O   UNL     1      12.096  -0.236   0.000  0.00  0.00    +0.000 OA
ATOM     37  C   UNL     1       9.952   1.002   0.000  0.00  0.00    +0.000 A 
ATOM     38  C   UNL     1      10.667   1.414   0.000  0.00  0.00    +0.000 A 
ATOM     39  C   UNL     1       9.952   0.177   0.000  0.00  0.00    +0.000 A 
ATOM     40  C   UNL     1      11.381   1.002   0.000  0.00  0.00    +0.000 A 
ATOM     41  C   UNL     1      10.667  -0.236   0.000  0.00  0.00    +0.000 A 
ATOM     42  C   UNL     1      11.381   0.177   0.000  0.00  0.00    +0.000 A 
ENDBRANCH  27  37
ENDBRANCH  21  26
ENDBRANCH   8  21
BRANCH   4  43
ATOM     43  C   UNL     1       5.665   0.177   0.000  0.00  0.00    +0.000 C 
BRANCH  43  44
ATOM     44  O   UNL     1       4.951  -0.236   0.000  0.00  0.00    +0.000 OA
BRANCH  44  49
ATOM     45  O   UNL     1       3.522  -0.236   0.000  0.00  0.00    +0.000 OA
ATOM     46  O   UNL     1       4.951   1.414   0.000  0.00  0.00    +0.000 OA
ATOM     47  O   UNL     1       3.522   2.239   0.000  0.00  0.00    +0.000 OA
ATOM     48  O   UNL     1       2.093   1.414   0.000  0.00  0.00    +0.000 OA
ATOM     49  C   UNL     1       4.236   0.177   0.000  0.00  0.00    +0.000 C 
ATOM     50  C   UNL     1       4.236   1.002   0.000  0.00  0.00    +0.000 C 
ATOM     51  C   UNL     1       3.522   1.414   0.000  0.00  0.00    +0.000 C 
ATOM     52  C   UNL     1       2.808   1.002   0.000  0.00  0.00    +0.000 C 
ATOM     53  C   UNL     1       2.808   0.177   0.000  0.00  0.00    +0.000 C 
ATOM     54  C   UNL     1       2.093  -0.236   0.000  0.00  0.00    +0.000 C 
ENDBRANCH  44  49
ENDBRANCH  43  44
ENDBRANCH   4  43
TORSDOF 9
