REMARK  Name = 42607573
REMARK  8 active torsions:
REMARK  status: ('A' for Active; 'I' for Inactive)
REMARK    1  A    between atoms: O_4  and  C_16
REMARK    2  A    between atoms: O_4  and  C_18
REMARK    3  A    between atoms: O_10  and  C_30
REMARK    4  A    between atoms: O_11  and  C_31
REMARK    5  A    between atoms: C_14  and  C_17
REMARK    6  A    between atoms: C_23  and  C_24
REMARK    7  A    between atoms: C_24  and  C_25
REMARK    8  A    between atoms: C_26  and  C_27
REMARK                            x       y       z     vdW  Elec       q    Type
REMARK                         _______ _______ _______ _____ _____    ______ ____
ROOT
ATOM      1  O   UNL     1       4.236  -1.316   0.000  0.00  0.00    +0.000 OA
ATOM      2  O   UNL     1       4.236   0.334   0.000  0.00  0.00    +0.000 OA
ATOM      3  C   UNL     1       5.665  -1.316   0.000  0.00  0.00    +0.000 A 
ATOM      4  C   UNL     1       4.951  -0.903   0.000  0.00  0.00    +0.000 A 
ATOM      5  C   UNL     1       6.380  -0.903   0.000  0.00  0.00    +0.000 A 
ATOM      6  C   UNL     1       4.951  -0.078   0.000  0.00  0.00    +0.000 A 
ATOM      7  C   UNL     1       6.380  -0.078   0.000  0.00  0.00    +0.000 A 
ATOM      8  C   UNL     1       5.665   0.334   0.000  0.00  0.00    +0.000 A 
ENDROOT
BRANCH   8  10
ATOM      9  O   UNL     1       4.951   1.572   0.000  0.00  0.00    +0.000 OA
ATOM     10  C   UNL     1       5.665   1.159   0.000  0.00  0.00    +0.000 C 
BRANCH  10  11
ATOM     11  C   UNL     1       6.380   1.572   0.000  0.00  0.00    +0.000 C 
ATOM     12  C   UNL     1       6.380   2.397   0.000  0.00  0.00    +0.000 C 
BRANCH  12  13
ATOM     13  C   UNL     1       7.094   2.809   0.000  0.00  0.00    +0.000 A 
ATOM     14  C   UNL     1       7.809   2.397   0.000  0.00  0.00    +0.000 A 
ATOM     15  C   UNL     1       7.094   3.634   0.000  0.00  0.00    +0.000 A 
ATOM     16  C   UNL     1       8.523   2.809   0.000  0.00  0.00    +0.000 A 
ATOM     17  C   UNL     1       8.523   3.634   0.000  0.00  0.00    +0.000 A 
ATOM     18  C   UNL     1       7.809   4.047   0.000  0.00  0.00    +0.000 A 
BRANCH  16  19
ATOM     19  O   UNL     1       9.238   2.397   0.000  0.00  0.00    +0.000 OA
ATOM     20  C   UNL     1       9.952   2.809   0.000  0.00  0.00    +0.000 C 
ENDBRANCH  16  19
BRANCH  17  21
ATOM     21  O   UNL     1       9.238   4.047   0.000  0.00  0.00    +0.000 OA
ATOM     22  C   UNL     1       9.238   4.872   0.000  0.00  0.00    +0.000 C 
ENDBRANCH  17  21
ENDBRANCH  12  13
ENDBRANCH  10  11
ENDBRANCH   8  10
BRANCH   3  23
ATOM     23  O   UNL     1       5.665  -2.141   0.000  0.00  0.00    +0.000 OA
BRANCH  23  32
ATOM     24  O   UNL     1       4.236  -2.141   0.000  0.00  0.00    +0.000 OA
ATOM     25  O   UNL     1       2.808  -3.791   0.000  0.00  0.00    +0.000 OA
ATOM     26  O   UNL     1       4.236  -4.616   0.000  0.00  0.00    +0.000 OA
ATOM     27  O   UNL     1       5.665  -3.791   0.000  0.00  0.00    +0.000 OA
ATOM     28  C   UNL     1       3.522  -3.378   0.000  0.00  0.00    +0.000 C 
ATOM     29  C   UNL     1       4.236  -3.791   0.000  0.00  0.00    +0.000 C 
ATOM     30  C   UNL     1       3.522  -2.553   0.000  0.00  0.00    +0.000 C 
ATOM     31  C   UNL     1       4.951  -3.378   0.000  0.00  0.00    +0.000 C 
ATOM     32  C   UNL     1       4.951  -2.553   0.000  0.00  0.00    +0.000 C 
BRANCH  30  34
ATOM     33  O   UNL     1       2.093  -2.553   0.000  0.00  0.00    +0.000 OA
ATOM     34  C   UNL     1       2.808  -2.141   0.000  0.00  0.00    +0.000 C 
ENDBRANCH  30  34
ENDBRANCH  23  32
ENDBRANCH   3  23
TORSDOF 8
