REMARK  Name = 42607620
REMARK  10 active torsions:
REMARK  status: ('A' for Active; 'I' for Inactive)
REMARK    1  A    between atoms: O_2  and  C_16
REMARK    2  A    between atoms: O_2  and  C_18
REMARK    3  A    between atoms: O_7  and  C_21
REMARK    4  A    between atoms: O_8  and  C_22
REMARK    5  A    between atoms: O_10  and  C_30
REMARK    6  A    between atoms: O_11  and  C_34
REMARK    7  A    between atoms: C_14  and  C_17
REMARK    8  A    between atoms: C_19  and  C_24
REMARK    9  A    between atoms: C_24  and  C_25
REMARK   10  A    between atoms: C_26  and  C_29
REMARK                            x       y       z     vdW  Elec       q    Type
REMARK                         _______ _______ _______ _____ _____    ______ ____
ROOT
ATOM      1  C   UNL     1       5.665   0.540   0.000  0.00  0.00    +0.000 A 
ATOM      2  C   UNL     1       6.380   0.953   0.000  0.00  0.00    +0.000 A 
ATOM      3  C   UNL     1       4.951   0.953   0.000  0.00  0.00    +0.000 A 
ATOM      4  C   UNL     1       6.380   1.778   0.000  0.00  0.00    +0.000 A 
ATOM      5  C   UNL     1       4.951   1.778   0.000  0.00  0.00    +0.000 A 
ATOM      6  C   UNL     1       5.665   2.190   0.000  0.00  0.00    +0.000 A 
ENDROOT
BRANCH   4   7
ATOM      7  O   UNL     1       7.094   2.190   0.000  0.00  0.00    +0.000 OA
ATOM      8  C   UNL     1       7.094   3.015   0.000  0.00  0.00    +0.000 C 
ENDBRANCH   4   7
BRANCH   5   9
ATOM      9  O   UNL     1       4.237   2.190   0.000  0.00  0.00    +0.000 OA
ATOM     10  C   UNL     1       4.237   3.015   0.000  0.00  0.00    +0.000 C 
ENDBRANCH   5   9
BRANCH   2  12
ATOM     11  O   UNL     1       7.094  -0.285   0.000  0.00  0.00    +0.000 OA
ATOM     12  C   UNL     1       7.094   0.540   0.000  0.00  0.00    +0.000 C 
BRANCH  12  13
ATOM     13  C   UNL     1       7.809   0.953   0.000  0.00  0.00    +0.000 C 
ATOM     14  C   UNL     1       8.523   0.540   0.000  0.00  0.00    +0.000 C 
BRANCH  14  15
ATOM     15  C   UNL     1       9.238   0.953   0.000  0.00  0.00    +0.000 A 
ATOM     16  C   UNL     1       9.952   0.540   0.000  0.00  0.00    +0.000 A 
ATOM     17  C   UNL     1       9.238   1.778   0.000  0.00  0.00    +0.000 A 
ATOM     18  C   UNL     1      10.667   0.953   0.000  0.00  0.00    +0.000 A 
ATOM     19  C   UNL     1       9.952   2.190   0.000  0.00  0.00    +0.000 A 
ATOM     20  C   UNL     1      10.667   1.778   0.000  0.00  0.00    +0.000 A 
BRANCH  16  21
ATOM     21  O   UNL     1       9.952  -0.285   0.000  0.00  0.00    +0.000 OA
ATOM     22  C   UNL     1      10.667  -0.697   0.000  0.00  0.00    +0.000 C 
ENDBRANCH  16  21
BRANCH  20  23
ATOM     23  O   UNL     1      11.381   2.190   0.000  0.00  0.00    +0.000 OA
ATOM     24  C   UNL     1      12.096   1.778   0.000  0.00  0.00    +0.000 C 
ENDBRANCH  20  23
ENDBRANCH  14  15
ENDBRANCH  12  13
ENDBRANCH   2  12
BRANCH   1  25
ATOM     25  O   UNL     1       5.665  -0.285   0.000  0.00  0.00    +0.000 OA
BRANCH  25  34
ATOM     26  O   UNL     1       4.237  -0.285   0.000  0.00  0.00    +0.000 OA
ATOM     27  O   UNL     1       4.237  -2.760   0.000  0.00  0.00    +0.000 OA
ATOM     28  O   UNL     1       2.808  -1.935   0.000  0.00  0.00    +0.000 OA
ATOM     29  O   UNL     1       5.665  -1.935   0.000  0.00  0.00    +0.000 OA
ATOM     30  C   UNL     1       3.522  -1.522   0.000  0.00  0.00    +0.000 C 
ATOM     31  C   UNL     1       4.237  -1.935   0.000  0.00  0.00    +0.000 C 
ATOM     32  C   UNL     1       3.522  -0.697   0.000  0.00  0.00    +0.000 C 
ATOM     33  C   UNL     1       4.951  -1.522   0.000  0.00  0.00    +0.000 C 
ATOM     34  C   UNL     1       4.951  -0.697   0.000  0.00  0.00    +0.000 C 
BRANCH  32  36
ATOM     35  O   UNL     1       2.093  -0.697   0.000  0.00  0.00    +0.000 OA
ATOM     36  C   UNL     1       2.808  -0.285   0.000  0.00  0.00    +0.000 C 
ENDBRANCH  32  36
ENDBRANCH  25  34
ENDBRANCH   1  25
TORSDOF 10
