REMARK  Name = 3083261
REMARK  13 active torsions:
REMARK  status: ('A' for Active; 'I' for Inactive)
REMARK    1  A    between atoms: O_1  and  C_25
REMARK    2  A    between atoms: O_1  and  C_28
REMARK    3  A    between atoms: O_4  and  C_32
REMARK    4  A    between atoms: O_4  and  C_40
REMARK    5  A    between atoms: O_6  and  C_29
REMARK    6  A    between atoms: O_6  and  C_48
REMARK    7  A    between atoms: O_11  and  C_38
REMARK    8  A    between atoms: O_11  and  C_49
REMARK    9  A    between atoms: C_31  and  C_43
REMARK   10  A    between atoms: C_36  and  C_45
REMARK   11  A    between atoms: C_50  and  C_57
REMARK   12  A    between atoms: C_55  and  C_58
REMARK   13  A    between atoms: C_57  and  C_59
REMARK                            x       y       z     vdW  Elec       q    Type
REMARK                         _______ _______ _______ _____ _____    ______ ____
ROOT
ATOM      1  O   UNL     1       8.537   0.667   0.000  0.00  0.00    +0.000 OA
ATOM      2  O   UNL     1       6.394  -0.570   0.000  0.00  0.00    +0.000 OA
ATOM      3  C   UNL     1       7.095   2.374   0.000  0.00  0.00    +0.000 A 
ATOM      4  C   UNL     1       7.822  -0.570   0.000  0.00  0.00    +0.000 A 
ATOM      5  C   UNL     1       7.836   1.939   0.000  0.00  0.00    +0.000 A 
ATOM      6  C   UNL     1       7.822   1.080   0.000  0.00  0.00    +0.000 A 
ATOM      7  C   UNL     1       7.108   0.667   0.000  0.00  0.00    +0.000 A 
ATOM      8  C   UNL     1       6.351   1.945   0.000  0.00  0.00    +0.000 A 
ATOM      9  C   UNL     1       7.108  -0.158   0.000  0.00  0.00    +0.000 A 
ATOM     10  C   UNL     1       8.537  -0.158   0.000  0.00  0.00    +0.000 A 
ATOM     11  C   UNL     1       6.357   1.085   0.000  0.00  0.00    +0.000 A 
ENDROOT
BRANCH  10  13
ATOM     12  O   UNL     1      11.395  -1.808   0.000  0.00  0.00    +0.000 OA
ATOM     13  C   UNL     1       9.251  -0.570   0.000  0.00  0.00    +0.000 A 
ATOM     14  C   UNL     1       9.251  -1.395   0.000  0.00  0.00    +0.000 A 
ATOM     15  C   UNL     1       9.966  -0.158   0.000  0.00  0.00    +0.000 A 
ATOM     16  C   UNL     1       9.966  -1.808   0.000  0.00  0.00    +0.000 A 
ATOM     17  C   UNL     1      10.680  -0.570   0.000  0.00  0.00    +0.000 A 
ATOM     18  C   UNL     1      10.680  -1.395   0.000  0.00  0.00    +0.000 A 
ENDBRANCH  10  13
BRANCH   3  19
ATOM     19  O   UNL     1       7.098   3.199   0.000  0.00  0.00    +0.000 OA
BRANCH  19  26
ATOM     20  O   UNL     1       6.388   4.440   0.000  0.00  0.00    +0.000 OA
ATOM     21  O   UNL     1       4.240   3.210   0.000  0.00  0.00    +0.000 OA
ATOM     22  O   UNL     1       4.247   4.860   0.000  0.00  0.00    +0.000 OA
ATOM     23  C   UNL     1       5.669   3.205   0.000  0.00  0.00    +0.000 C 
ATOM     24  C   UNL     1       4.956   3.620   0.000  0.00  0.00    +0.000 C 
ATOM     25  C   UNL     1       4.959   4.445   0.000  0.00  0.00    +0.000 C 
ATOM     26  C   UNL     1       6.385   3.615   0.000  0.00  0.00    +0.000 C 
ATOM     27  C   UNL     1       5.675   4.855   0.000  0.00  0.00    +0.000 C 
BRANCH  27  29
ATOM     28  O   UNL     1       6.395   6.090   0.000  0.00  0.00    +0.000 OA
ATOM     29  C   UNL     1       5.679   5.680   0.000  0.00  0.00    +0.000 C 
ENDBRANCH  27  29
BRANCH  23  30
ATOM     30  O   UNL     1       5.666   2.380   0.000  0.00  0.00    +0.000 OA
BRANCH  30  35
ATOM     31  O   UNL     1       4.237   2.385   0.000  0.00  0.00    +0.000 OA
ATOM     32  O   UNL     1       5.660   0.730   0.000  0.00  0.00    +0.000 OA
ATOM     33  O   UNL     1       4.228  -0.090   0.000  0.00  0.00    +0.000 OA
ATOM     34  O   UNL     1       2.802   0.741   0.000  0.00  0.00    +0.000 OA
ATOM     35  C   UNL     1       4.950   1.970   0.000  0.00  0.00    +0.000 C 
ATOM     36  C   UNL     1       4.947   1.145   0.000  0.00  0.00    +0.000 C 
ATOM     37  C   UNL     1       4.231   0.735   0.000  0.00  0.00    +0.000 C 
ATOM     38  C   UNL     1       3.518   1.151   0.000  0.00  0.00    +0.000 C 
ATOM     39  C   UNL     1       3.521   1.976   0.000  0.00  0.00    +0.000 C 
BRANCH  39  41
ATOM     40  O   UNL     1       2.092   1.981   0.000  0.00  0.00    +0.000 OA
ATOM     41  C   UNL     1       2.808   2.391   0.000  0.00  0.00    +0.000 C 
ENDBRANCH  39  41
ENDBRANCH  30  35
ENDBRANCH  23  30
ENDBRANCH  19  26
ENDBRANCH   3  19
BRANCH   4  42
ATOM     42  O   UNL     1       7.822  -1.395   0.000  0.00  0.00    +0.000 OA
BRANCH  42  49
ATOM     43  O   UNL     1       6.394  -1.395   0.000  0.00  0.00    +0.000 OA
ATOM     44  O   UNL     1       6.394  -3.870   0.000  0.00  0.00    +0.000 OA
ATOM     45  O   UNL     1       4.965  -3.045   0.000  0.00  0.00    +0.000 OA
ATOM     46  C   UNL     1       7.108  -2.633   0.000  0.00  0.00    +0.000 C 
ATOM     47  C   UNL     1       6.394  -3.045   0.000  0.00  0.00    +0.000 C 
ATOM     48  C   UNL     1       5.679  -2.633   0.000  0.00  0.00    +0.000 C 
ATOM     49  C   UNL     1       7.108  -1.808   0.000  0.00  0.00    +0.000 C 
ATOM     50  C   UNL     1       5.679  -1.808   0.000  0.00  0.00    +0.000 C 
ATOM     51  C   UNL     1       4.965  -1.395   0.000  0.00  0.00    +0.000 C 
BRANCH  46  52
ATOM     52  O   UNL     1       7.822  -3.045   0.000  0.00  0.00    +0.000 OA
BRANCH  52  58
ATOM     53  O   UNL     1       7.108  -4.283   0.000  0.00  0.00    +0.000 OA
ATOM     54  O   UNL     1       9.251  -3.870   0.000  0.00  0.00    +0.000 OA
ATOM     55  O   UNL     1       9.251  -5.520   0.000  0.00  0.00    +0.000 OA
ATOM     56  O   UNL     1       7.822  -6.345   0.000  0.00  0.00    +0.000 OA
ATOM     57  O   UNL     1       6.394  -5.520   0.000  0.00  0.00    +0.000 OA
ATOM     58  C   UNL     1       7.822  -3.870   0.000  0.00  0.00    +0.000 C 
ATOM     59  C   UNL     1       8.537  -4.283   0.000  0.00  0.00    +0.000 C 
ATOM     60  C   UNL     1       8.537  -5.108   0.000  0.00  0.00    +0.000 C 
ATOM     61  C   UNL     1       7.822  -5.520   0.000  0.00  0.00    +0.000 C 
ATOM     62  C   UNL     1       7.108  -5.108   0.000  0.00  0.00    +0.000 C 
ENDBRANCH  52  58
ENDBRANCH  46  52
ENDBRANCH  42  49
ENDBRANCH   4  42
BRANCH   5  63
ATOM     63  C   UNL     1       8.555   2.343   0.000  0.00  0.00    +0.000 C 
BRANCH  63  64
ATOM     64  C   UNL     1       8.564   3.168   0.000  0.00  0.00    +0.000 C 
ATOM     65  C   UNL     1       9.284   3.572   0.000  0.00  0.00    +0.000 C 
ATOM     66  C   UNL     1       9.293   4.397   0.000  0.00  0.00    +0.000 C 
ATOM     67  C   UNL     1       9.993   3.152   0.000  0.00  0.00    +0.000 C 
ENDBRANCH  63  64
ENDBRANCH   5  63
TORSDOF 13
