REMARK  Name = 42607522
REMARK  9 active torsions:
REMARK  status: ('A' for Active; 'I' for Inactive)
REMARK    1  A    between atoms: O_7  and  C_23
REMARK    2  A    between atoms: O_7  and  C_27
REMARK    3  A    between atoms: O_8  and  C_24
REMARK    4  A    between atoms: O_8  and  C_28
REMARK    5  A    between atoms: C_19  and  C_25
REMARK    6  A    between atoms: C_21  and  C_26
REMARK    7  A    between atoms: C_35  and  C_39
REMARK    8  A    between atoms: C_38  and  C_40
REMARK    9  A    between atoms: C_39  and  C_41
REMARK                            x       y       z     vdW  Elec       q    Type
REMARK                         _______ _______ _______ _____ _____    ______ ____
ROOT
ATOM      1  O   UNL     1       4.236   0.206   0.000  0.00  0.00    +0.000 OA
ATOM      2  C   UNL     1       4.951  -0.206   0.000  0.00  0.00    +0.000 C 
ENDROOT
BRANCH   2   9
ATOM      3  O   UNL     1       3.522  -1.031   0.000  0.00  0.00    +0.000 OA
ATOM      4  C   UNL     1       4.951  -2.681   0.000  0.00  0.00    +0.000 A 
ATOM      5  C   UNL     1       4.236  -2.269   0.000  0.00  0.00    +0.000 A 
ATOM      6  C   UNL     1       5.665  -2.269   0.000  0.00  0.00    +0.000 A 
ATOM      7  C   UNL     1       4.236  -1.444   0.000  0.00  0.00    +0.000 A 
ATOM      8  C   UNL     1       5.665  -1.444   0.000  0.00  0.00    +0.000 A 
ATOM      9  C   UNL     1       4.951  -1.031   0.000  0.00  0.00    +0.000 A 
BRANCH   4  10
ATOM     10  O   UNL     1       4.951  -3.506   0.000  0.00  0.00    +0.000 OA
BRANCH  10  19
ATOM     11  O   UNL     1       3.522  -3.506   0.000  0.00  0.00    +0.000 OA
ATOM     12  O   UNL     1       2.093  -5.156   0.000  0.00  0.00    +0.000 OA
ATOM     13  O   UNL     1       3.522  -5.981   0.000  0.00  0.00    +0.000 OA
ATOM     14  O   UNL     1       4.951  -5.156   0.000  0.00  0.00    +0.000 OA
ATOM     15  C   UNL     1       2.808  -4.744   0.000  0.00  0.00    +0.000 C 
ATOM     16  C   UNL     1       3.522  -5.156   0.000  0.00  0.00    +0.000 C 
ATOM     17  C   UNL     1       2.808  -3.919   0.000  0.00  0.00    +0.000 C 
ATOM     18  C   UNL     1       4.236  -4.744   0.000  0.00  0.00    +0.000 C 
ATOM     19  C   UNL     1       4.236  -3.919   0.000  0.00  0.00    +0.000 C 
BRANCH  17  21
ATOM     20  O   UNL     1       2.093  -2.681   0.000  0.00  0.00    +0.000 OA
ATOM     21  C   UNL     1       2.093  -3.506   0.000  0.00  0.00    +0.000 C 
ENDBRANCH  17  21
ENDBRANCH  10  19
ENDBRANCH   4  10
ENDBRANCH   2   9
BRANCH   2  23
ATOM     22  C   UNL     1       5.665   1.031   0.000  0.00  0.00    +0.000 C 
ATOM     23  C   UNL     1       5.665   0.206   0.000  0.00  0.00    +0.000 C 
BRANCH  22  29
ATOM     24  C   UNL     1       7.809   2.269   0.000  0.00  0.00    +0.000 A 
ATOM     25  C   UNL     1       7.094   2.681   0.000  0.00  0.00    +0.000 A 
ATOM     26  C   UNL     1       7.809   1.444   0.000  0.00  0.00    +0.000 A 
ATOM     27  C   UNL     1       6.380   2.269   0.000  0.00  0.00    +0.000 A 
ATOM     28  C   UNL     1       7.094   1.031   0.000  0.00  0.00    +0.000 A 
ATOM     29  C   UNL     1       6.380   1.444   0.000  0.00  0.00    +0.000 A 
BRANCH  24  30
ATOM     30  O   UNL     1       8.523   2.681   0.000  0.00  0.00    +0.000 OA
BRANCH  30  39
ATOM     31  O   UNL     1       7.809   3.919   0.000  0.00  0.00    +0.000 OA
ATOM     32  O   UNL     1       8.523   5.981   0.000  0.00  0.00    +0.000 OA
ATOM     33  O   UNL     1       9.952   5.156   0.000  0.00  0.00    +0.000 OA
ATOM     34  O   UNL     1       9.952   3.506   0.000  0.00  0.00    +0.000 OA
ATOM     35  C   UNL     1       8.523   5.156   0.000  0.00  0.00    +0.000 C 
ATOM     36  C   UNL     1       9.238   4.744   0.000  0.00  0.00    +0.000 C 
ATOM     37  C   UNL     1       7.809   4.744   0.000  0.00  0.00    +0.000 C 
ATOM     38  C   UNL     1       9.238   3.919   0.000  0.00  0.00    +0.000 C 
ATOM     39  C   UNL     1       8.523   3.506   0.000  0.00  0.00    +0.000 C 
BRANCH  37  41
ATOM     40  O   UNL     1       7.094   5.981   0.000  0.00  0.00    +0.000 OA
ATOM     41  C   UNL     1       7.094   5.156   0.000  0.00  0.00    +0.000 C 
ENDBRANCH  37  41
ENDBRANCH  30  39
ENDBRANCH  24  30
ENDBRANCH  22  29
ENDBRANCH   2  23
TORSDOF 9
