REMARK  Name = 44259073
REMARK  13 active torsions:
REMARK  status: ('A' for Active; 'I' for Inactive)
REMARK    1  A    between atoms: O_1  and  C_21
REMARK    2  A    between atoms: O_1  and  C_26
REMARK    3  A    between atoms: O_3  and  C_22
REMARK    4  A    between atoms: O_3  and  C_38
REMARK    5  A    between atoms: O_5  and  C_25
REMARK    6  A    between atoms: O_5  and  C_37
REMARK    7  A    between atoms: O_11  and  C_36
REMARK    8  A    between atoms: O_11  and  C_43
REMARK    9  A    between atoms: O_20  and  C_57
REMARK   10  A    between atoms: C_35  and  C_39
REMARK   11  A    between atoms: C_41  and  C_50
REMARK   12  A    between atoms: C_45  and  C_49
REMARK   13  A    between atoms: C_49  and  C_51
REMARK                            x       y       z     vdW  Elec       q    Type
REMARK                         _______ _______ _______ _____ _____    ______ ____
ROOT
ATOM      1  O   UNL     1       7.094   0.667   0.000  0.00  0.00    +0.000 OA
ATOM      2  O   UNL     1       4.951  -0.570   0.000  0.00  0.00    +0.000 OA
ATOM      3  O   UNL     1       4.205   0.665   0.000  0.00  0.00    +0.000 OA
ATOM      4  C   UNL     1       6.380  -0.570   0.000  0.00  0.00    +0.000 A 
ATOM      5  C   UNL     1       5.665  -0.158   0.000  0.00  0.00    +0.000 A 
ATOM      6  C   UNL     1       7.094  -0.158   0.000  0.00  0.00    +0.000 A 
ATOM      7  C   UNL     1       5.665   0.667   0.000  0.00  0.00    +0.000 A 
ATOM      8  C   UNL     1       5.652   2.374   0.000  0.00  0.00    +0.000 A 
ATOM      9  C   UNL     1       6.380   1.080   0.000  0.00  0.00    +0.000 A 
ATOM     10  C   UNL     1       6.393   1.939   0.000  0.00  0.00    +0.000 A 
ATOM     11  C   UNL     1       4.915   1.085   0.000  0.00  0.00    +0.000 A 
ATOM     12  C   UNL     1       4.908   1.945   0.000  0.00  0.00    +0.000 A 
ENDROOT
BRANCH   6  13
ATOM     13  C   UNL     1       7.809  -0.570   0.000  0.00  0.00    +0.000 A 
ATOM     14  C   UNL     1       7.809  -1.395   0.000  0.00  0.00    +0.000 A 
ATOM     15  C   UNL     1       8.523  -0.158   0.000  0.00  0.00    +0.000 A 
ATOM     16  C   UNL     1       8.523  -1.808   0.000  0.00  0.00    +0.000 A 
ATOM     17  C   UNL     1       9.238  -0.570   0.000  0.00  0.00    +0.000 A 
ATOM     18  C   UNL     1       9.238  -1.395   0.000  0.00  0.00    +0.000 A 
BRANCH  18  19
ATOM     19  O   UNL     1       9.952  -1.808   0.000  0.00  0.00    +0.000 OA
ATOM     20  C   UNL     1      10.667  -1.395   0.000  0.00  0.00    +0.000 C 
ENDBRANCH  18  19
ENDBRANCH   6  13
BRANCH   4  21
ATOM     21  O   UNL     1       6.380  -1.395   0.000  0.00  0.00    +0.000 OA
BRANCH  21  28
ATOM     22  O   UNL     1       4.951  -1.395   0.000  0.00  0.00    +0.000 OA
ATOM     23  O   UNL     1       6.380  -3.045   0.000  0.00  0.00    +0.000 OA
ATOM     24  C   UNL     1       4.951  -3.045   0.000  0.00  0.00    +0.000 C 
ATOM     25  C   UNL     1       4.236  -2.633   0.000  0.00  0.00    +0.000 C 
ATOM     26  C   UNL     1       5.665  -2.633   0.000  0.00  0.00    +0.000 C 
ATOM     27  C   UNL     1       4.236  -1.808   0.000  0.00  0.00    +0.000 C 
ATOM     28  C   UNL     1       5.665  -1.808   0.000  0.00  0.00    +0.000 C 
ATOM     29  C   UNL     1       3.522  -1.395   0.000  0.00  0.00    +0.000 C 
BRANCH  24  30
ATOM     30  O   UNL     1       4.951  -3.870   0.000  0.00  0.00    +0.000 OA
BRANCH  30  35
ATOM     31  O   UNL     1       3.522  -3.870   0.000  0.00  0.00    +0.000 OA
ATOM     32  O   UNL     1       4.951  -5.520   0.000  0.00  0.00    +0.000 OA
ATOM     33  O   UNL     1       3.522  -6.345   0.000  0.00  0.00    +0.000 OA
ATOM     34  O   UNL     1       2.093  -5.520   0.000  0.00  0.00    +0.000 OA
ATOM     35  C   UNL     1       4.236  -4.283   0.000  0.00  0.00    +0.000 C 
ATOM     36  C   UNL     1       4.236  -5.108   0.000  0.00  0.00    +0.000 C 
ATOM     37  C   UNL     1       3.522  -5.520   0.000  0.00  0.00    +0.000 C 
ATOM     38  C   UNL     1       2.808  -5.108   0.000  0.00  0.00    +0.000 C 
ATOM     39  C   UNL     1       2.808  -4.283   0.000  0.00  0.00    +0.000 C 
ENDBRANCH  30  35
ENDBRANCH  24  30
BRANCH  25  40
ATOM     40  O   UNL     1       3.522  -3.045   0.000  0.00  0.00    +0.000 OA
BRANCH  40  42
ATOM     41  O   UNL     1       2.808  -1.808   0.000  0.00  0.00    +0.000 OA
ATOM     42  C   UNL     1       2.808  -2.633   0.000  0.00  0.00    +0.000 C 
ATOM     43  C   UNL     1       2.093  -3.045   0.000  0.00  0.00    +0.000 C 
ENDBRANCH  40  42
ENDBRANCH  25  40
ENDBRANCH  21  28
ENDBRANCH   4  21
BRANCH   8  44
ATOM     44  O   UNL     1       5.655   3.199   0.000  0.00  0.00    +0.000 OA
BRANCH  44  53
ATOM     45  O   UNL     1       4.946   4.440   0.000  0.00  0.00    +0.000 OA
ATOM     46  O   UNL     1       2.797   3.210   0.000  0.00  0.00    +0.000 OA
ATOM     47  O   UNL     1       2.804   4.860   0.000  0.00  0.00    +0.000 OA
ATOM     48  O   UNL     1       4.223   2.380   0.000  0.00  0.00    +0.000 OA
ATOM     49  C   UNL     1       3.514   3.620   0.000  0.00  0.00    +0.000 C 
ATOM     50  C   UNL     1       3.517   4.445   0.000  0.00  0.00    +0.000 C 
ATOM     51  C   UNL     1       4.226   3.205   0.000  0.00  0.00    +0.000 C 
ATOM     52  C   UNL     1       4.233   4.855   0.000  0.00  0.00    +0.000 C 
ATOM     53  C   UNL     1       4.942   3.615   0.000  0.00  0.00    +0.000 C 
BRANCH  52  55
ATOM     54  O   UNL     1       4.952   6.090   0.000  0.00  0.00    +0.000 OA
ATOM     55  C   UNL     1       4.236   5.680   0.000  0.00  0.00    +0.000 C 
ENDBRANCH  52  55
ENDBRANCH  44  53
ENDBRANCH   8  44
BRANCH  10  56
ATOM     56  C   UNL     1       7.112   2.343   0.000  0.00  0.00    +0.000 C 
BRANCH  56  57
ATOM     57  C   UNL     1       7.122   3.168   0.000  0.00  0.00    +0.000 C 
ATOM     58  C   UNL     1       7.841   3.572   0.000  0.00  0.00    +0.000 C 
ATOM     59  C   UNL     1       7.851   4.397   0.000  0.00  0.00    +0.000 C 
ATOM     60  C   UNL     1       8.551   3.152   0.000  0.00  0.00    +0.000 C 
ENDBRANCH  56  57
ENDBRANCH  10  56
TORSDOF 13
