REMARK  Name = 44258973
REMARK  9 active torsions:
REMARK  status: ('A' for Active; 'I' for Inactive)
REMARK    1  A    between atoms: O_1  and  C_20
REMARK    2  A    between atoms: O_1  and  C_25
REMARK    3  A    between atoms: O_3  and  C_21
REMARK    4  A    between atoms: O_3  and  C_37
REMARK    5  A    between atoms: O_6  and  C_24
REMARK    6  A    between atoms: O_6  and  C_36
REMARK    7  A    between atoms: O_11  and  C_35
REMARK    8  A    between atoms: O_11  and  C_42
REMARK    9  A    between atoms: C_39  and  C_48
REMARK                            x       y       z     vdW  Elec       q    Type
REMARK                         _______ _______ _______ _____ _____    ______ ____
ROOT
ATOM      1  O   UNL     1       7.094   1.128   0.000  0.00  0.00    +0.000 OA
ATOM      2  O   UNL     1       4.951  -0.110   0.000  0.00  0.00    +0.000 OA
ATOM      3  O   UNL     1       4.205   1.125   0.000  0.00  0.00    +0.000 OA
ATOM      4  C   UNL     1       6.380  -0.110   0.000  0.00  0.00    +0.000 A 
ATOM      5  C   UNL     1       7.094   0.303   0.000  0.00  0.00    +0.000 A 
ATOM      6  C   UNL     1       5.665   0.303   0.000  0.00  0.00    +0.000 A 
ATOM      7  C   UNL     1       5.665   1.128   0.000  0.00  0.00    +0.000 A 
ATOM      8  C   UNL     1       5.652   2.835   0.000  0.00  0.00    +0.000 A 
ATOM      9  C   UNL     1       6.380   1.540   0.000  0.00  0.00    +0.000 A 
ATOM     10  C   UNL     1       6.393   2.400   0.000  0.00  0.00    +0.000 A 
ATOM     11  C   UNL     1       4.915   1.546   0.000  0.00  0.00    +0.000 A 
ATOM     12  C   UNL     1       4.908   2.405   0.000  0.00  0.00    +0.000 A 
ENDROOT
BRANCH   5  14
ATOM     13  O   UNL     1       9.952  -1.347   0.000  0.00  0.00    +0.000 OA
ATOM     14  C   UNL     1       7.809  -0.110   0.000  0.00  0.00    +0.000 A 
ATOM     15  C   UNL     1       8.523   0.303   0.000  0.00  0.00    +0.000 A 
ATOM     16  C   UNL     1       7.809  -0.935   0.000  0.00  0.00    +0.000 A 
ATOM     17  C   UNL     1       9.238  -0.110   0.000  0.00  0.00    +0.000 A 
ATOM     18  C   UNL     1       8.523  -1.347   0.000  0.00  0.00    +0.000 A 
ATOM     19  C   UNL     1       9.238  -0.935   0.000  0.00  0.00    +0.000 A 
ENDBRANCH   5  14
BRANCH   4  20
ATOM     20  O   UNL     1       6.380  -0.935   0.000  0.00  0.00    +0.000 OA
BRANCH  20  27
ATOM     21  O   UNL     1       4.951  -0.935   0.000  0.00  0.00    +0.000 OA
ATOM     22  O   UNL     1       6.380  -2.585   0.000  0.00  0.00    +0.000 OA
ATOM     23  C   UNL     1       4.951  -2.585   0.000  0.00  0.00    +0.000 C 
ATOM     24  C   UNL     1       4.236  -2.172   0.000  0.00  0.00    +0.000 C 
ATOM     25  C   UNL     1       5.665  -2.172   0.000  0.00  0.00    +0.000 C 
ATOM     26  C   UNL     1       4.236  -1.347   0.000  0.00  0.00    +0.000 C 
ATOM     27  C   UNL     1       5.665  -1.347   0.000  0.00  0.00    +0.000 C 
ATOM     28  C   UNL     1       3.522  -0.935   0.000  0.00  0.00    +0.000 C 
BRANCH  23  29
ATOM     29  O   UNL     1       4.951  -3.410   0.000  0.00  0.00    +0.000 OA
BRANCH  29  34
ATOM     30  O   UNL     1       3.522  -3.410   0.000  0.00  0.00    +0.000 OA
ATOM     31  O   UNL     1       4.951  -5.060   0.000  0.00  0.00    +0.000 OA
ATOM     32  O   UNL     1       3.522  -5.885   0.000  0.00  0.00    +0.000 OA
ATOM     33  O   UNL     1       2.093  -5.060   0.000  0.00  0.00    +0.000 OA
ATOM     34  C   UNL     1       4.236  -3.822   0.000  0.00  0.00    +0.000 C 
ATOM     35  C   UNL     1       4.236  -4.647   0.000  0.00  0.00    +0.000 C 
ATOM     36  C   UNL     1       3.522  -5.060   0.000  0.00  0.00    +0.000 C 
ATOM     37  C   UNL     1       2.808  -4.647   0.000  0.00  0.00    +0.000 C 
ATOM     38  C   UNL     1       2.808  -3.822   0.000  0.00  0.00    +0.000 C 
ENDBRANCH  29  34
ENDBRANCH  23  29
BRANCH  24  39
ATOM     39  O   UNL     1       3.522  -2.585   0.000  0.00  0.00    +0.000 OA
BRANCH  39  41
ATOM     40  O   UNL     1       2.808  -1.347   0.000  0.00  0.00    +0.000 OA
ATOM     41  C   UNL     1       2.808  -2.172   0.000  0.00  0.00    +0.000 C 
ATOM     42  C   UNL     1       2.093  -2.585   0.000  0.00  0.00    +0.000 C 
ENDBRANCH  39  41
ENDBRANCH  24  39
ENDBRANCH  20  27
ENDBRANCH   4  20
BRANCH   8  43
ATOM     43  O   UNL     1       5.655   3.660   0.000  0.00  0.00    +0.000 OA
BRANCH  43  52
ATOM     44  O   UNL     1       4.946   4.900   0.000  0.00  0.00    +0.000 OA
ATOM     45  O   UNL     1       2.797   3.671   0.000  0.00  0.00    +0.000 OA
ATOM     46  O   UNL     1       2.804   5.321   0.000  0.00  0.00    +0.000 OA
ATOM     47  O   UNL     1       4.223   2.841   0.000  0.00  0.00    +0.000 OA
ATOM     48  C   UNL     1       3.514   4.081   0.000  0.00  0.00    +0.000 C 
ATOM     49  C   UNL     1       3.517   4.906   0.000  0.00  0.00    +0.000 C 
ATOM     50  C   UNL     1       4.226   3.666   0.000  0.00  0.00    +0.000 C 
ATOM     51  C   UNL     1       4.233   5.316   0.000  0.00  0.00    +0.000 C 
ATOM     52  C   UNL     1       4.942   4.075   0.000  0.00  0.00    +0.000 C 
ATOM     53  C   UNL     1       4.236   6.141   0.000  0.00  0.00    +0.000 C 
ENDBRANCH  43  52
ENDBRANCH   8  43
TORSDOF 9
