REMARK  Name = 44258411
REMARK  8 active torsions:
REMARK  status: ('A' for Active; 'I' for Inactive)
REMARK    1  A    between atoms: O_2  and  C_18
REMARK    2  A    between atoms: O_2  and  C_20
REMARK    3  A    between atoms: O_6  and  C_19
REMARK    4  A    between atoms: O_6  and  C_24
REMARK    5  A    between atoms: C_16  and  C_19
REMARK    6  A    between atoms: C_24  and  C_27
REMARK    7  A    between atoms: C_27  and  C_32
REMARK    8  A    between atoms: C_29  and  C_31
REMARK                            x       y       z     vdW  Elec       q    Type
REMARK                         _______ _______ _______ _____ _____    ______ ____
ROOT
ATOM      1  O   UNL     1       9.988   1.354   0.000  0.00  0.00    +0.000 OA
ATOM      2  O   UNL     1       7.094  -0.302   0.000  0.00  0.00    +0.000 OA
ATOM      3  O   UNL     1       7.094   1.348   0.000  0.00  0.00    +0.000 OA
ATOM      4  O   UNL     1       7.791   2.612   0.000  0.00  0.00    +0.000 OA
ATOM      5  C   UNL     1       8.523  -0.302   0.000  0.00  0.00    +0.000 A 
ATOM      6  C   UNL     1       9.238   0.111   0.000  0.00  0.00    +0.000 A 
ATOM      7  C   UNL     1       7.809   0.111   0.000  0.00  0.00    +0.000 A 
ATOM      8  C   UNL     1       9.238   0.936   0.000  0.00  0.00    +0.000 A 
ATOM      9  C   UNL     1       8.523   1.348   0.000  0.00  0.00    +0.000 A 
ATOM     10  C   UNL     1       7.809   0.936   0.000  0.00  0.00    +0.000 A 
ATOM     11  C   UNL     1       8.510   2.207   0.000  0.00  0.00    +0.000 A 
ATOM     12  C   UNL     1       9.995   2.213   0.000  0.00  0.00    +0.000 A 
ATOM     13  C   UNL     1       9.251   2.643   0.000  0.00  0.00    +0.000 A 
ENDROOT
BRANCH  12  14
ATOM     14  C   UNL     1      10.711   2.623   0.000  0.00  0.00    +0.000 A 
ATOM     15  C   UNL     1      10.714   3.448   0.000  0.00  0.00    +0.000 A 
ATOM     16  C   UNL     1      11.424   2.208   0.000  0.00  0.00    +0.000 A 
ATOM     17  C   UNL     1      11.430   3.858   0.000  0.00  0.00    +0.000 A 
ATOM     18  C   UNL     1      12.140   2.617   0.000  0.00  0.00    +0.000 A 
ATOM     19  C   UNL     1      12.143   3.442   0.000  0.00  0.00    +0.000 A 
ENDBRANCH  12  14
BRANCH   5  20
ATOM     20  O   UNL     1       8.523  -1.127   0.000  0.00  0.00    +0.000 OA
BRANCH  20  29
ATOM     21  O   UNL     1       7.094  -1.127   0.000  0.00  0.00    +0.000 OA
ATOM     22  O   UNL     1       5.665  -2.777   0.000  0.00  0.00    +0.000 OA
ATOM     23  O   UNL     1       7.094  -3.602   0.000  0.00  0.00    +0.000 OA
ATOM     24  O   UNL     1       8.523  -2.777   0.000  0.00  0.00    +0.000 OA
ATOM     25  C   UNL     1       6.380  -2.364   0.000  0.00  0.00    +0.000 C 
ATOM     26  C   UNL     1       7.094  -2.777   0.000  0.00  0.00    +0.000 C 
ATOM     27  C   UNL     1       6.380  -1.539   0.000  0.00  0.00    +0.000 C 
ATOM     28  C   UNL     1       7.809  -2.364   0.000  0.00  0.00    +0.000 C 
ATOM     29  C   UNL     1       7.809  -1.539   0.000  0.00  0.00    +0.000 C 
BRANCH  27  30
ATOM     30  C   UNL     1       5.665  -1.127   0.000  0.00  0.00    +0.000 C 
BRANCH  30  31
ATOM     31  O   UNL     1       4.951  -1.539   0.000  0.00  0.00    +0.000 OA
BRANCH  31  33
ATOM     32  O   UNL     1       4.236  -0.302   0.000  0.00  0.00    +0.000 OA
ATOM     33  C   UNL     1       4.236  -1.127   0.000  0.00  0.00    +0.000 C 
BRANCH  33  34
ATOM     34  C   UNL     1       3.522  -1.539   0.000  0.00  0.00    +0.000 C 
BRANCH  34  37
ATOM     35  O   UNL     1       2.093  -1.539   0.000  0.00  0.00    +0.000 OA
ATOM     36  O   UNL     1       2.808  -0.302   0.000  0.00  0.00    +0.000 OA
ATOM     37  C   UNL     1       2.808  -1.127   0.000  0.00  0.00    +0.000 C 
ENDBRANCH  34  37
ENDBRANCH  33  34
ENDBRANCH  31  33
ENDBRANCH  30  31
ENDBRANCH  27  30
ENDBRANCH  20  29
ENDBRANCH   5  20
TORSDOF 8
