REMARK  Name = 44258794
REMARK  14 active torsions:
REMARK  status: ('A' for Active; 'I' for Inactive)
REMARK    1  A    between atoms: O_1  and  C_26
REMARK    2  A    between atoms: O_1  and  C_31
REMARK    3  A    between atoms: O_2  and  C_27
REMARK    4  A    between atoms: O_2  and  C_34
REMARK    5  A    between atoms: O_7  and  C_32
REMARK    6  A    between atoms: O_7  and  C_50
REMARK    7  A    between atoms: O_9  and  C_39
REMARK    8  A    between atoms: O_9  and  C_51
REMARK    9  A    between atoms: C_35  and  C_46
REMARK   10  A    between atoms: C_43  and  C_47
REMARK   11  A    between atoms: C_45  and  C_49
REMARK   12  A    between atoms: C_52  and  C_59
REMARK   13  A    between atoms: C_57  and  C_60
REMARK   14  A    between atoms: C_59  and  C_61
REMARK                            x       y       z     vdW  Elec       q    Type
REMARK                         _______ _______ _______ _____ _____    ______ ____
ROOT
ATOM      1  O   UNL     1       7.114   0.227   0.000  0.00  0.00    +0.000 OA
ATOM      2  O   UNL     1       4.975   1.473   0.000  0.00  0.00    +0.000 OA
ATOM      3  O   UNL     1       4.225   0.241   0.000  0.00  0.00    +0.000 OA
ATOM      4  C   UNL     1       5.665  -1.474   0.000  0.00  0.00    +0.000 A 
ATOM      5  C   UNL     1       6.404   1.467   0.000  0.00  0.00    +0.000 A 
ATOM      6  C   UNL     1       6.408  -1.042   0.000  0.00  0.00    +0.000 A 
ATOM      7  C   UNL     1       6.398  -0.183   0.000  0.00  0.00    +0.000 A 
ATOM      8  C   UNL     1       5.685   0.233   0.000  0.00  0.00    +0.000 A 
ATOM      9  C   UNL     1       5.688   1.058   0.000  0.00  0.00    +0.000 A 
ATOM     10  C   UNL     1       4.923  -1.042   0.000  0.00  0.00    +0.000 A 
ATOM     11  C   UNL     1       7.117   1.052   0.000  0.00  0.00    +0.000 A 
ATOM     12  C   UNL     1       4.933  -0.183   0.000  0.00  0.00    +0.000 A 
ENDROOT
BRANCH  11  14
ATOM     13  O   UNL     1       9.981   2.691   0.000  0.00  0.00    +0.000 OA
ATOM     14  C   UNL     1       7.833   1.462   0.000  0.00  0.00    +0.000 A 
ATOM     15  C   UNL     1       7.836   2.287   0.000  0.00  0.00    +0.000 A 
ATOM     16  C   UNL     1       8.546   1.047   0.000  0.00  0.00    +0.000 A 
ATOM     17  C   UNL     1       8.552   2.697   0.000  0.00  0.00    +0.000 A 
ATOM     18  C   UNL     1       9.262   1.456   0.000  0.00  0.00    +0.000 A 
ATOM     19  C   UNL     1       9.265   2.281   0.000  0.00  0.00    +0.000 A 
ENDBRANCH  11  14
BRANCH   4  20
ATOM     20  O   UNL     1       5.665  -2.300   0.000  0.00  0.00    +0.000 OA
BRANCH  20  27
ATOM     21  O   UNL     1       4.236  -2.300   0.000  0.00  0.00    +0.000 OA
ATOM     22  O   UNL     1       4.236  -4.774   0.000  0.00  0.00    +0.000 OA
ATOM     23  O   UNL     1       2.808  -3.950   0.000  0.00  0.00    +0.000 OA
ATOM     24  C   UNL     1       4.951  -3.537   0.000  0.00  0.00    +0.000 C 
ATOM     25  C   UNL     1       4.236  -3.950   0.000  0.00  0.00    +0.000 C 
ATOM     26  C   UNL     1       3.522  -3.537   0.000  0.00  0.00    +0.000 C 
ATOM     27  C   UNL     1       4.951  -2.712   0.000  0.00  0.00    +0.000 C 
ATOM     28  C   UNL     1       3.522  -2.712   0.000  0.00  0.00    +0.000 C 
BRANCH  28  30
ATOM     29  O   UNL     1       2.093  -2.712   0.000  0.00  0.00    +0.000 OA
ATOM     30  C   UNL     1       2.808  -2.300   0.000  0.00  0.00    +0.000 C 
ENDBRANCH  28  30
BRANCH  24  31
ATOM     31  O   UNL     1       5.665  -3.950   0.000  0.00  0.00    +0.000 OA
BRANCH  31  36
ATOM     32  O   UNL     1       4.951  -5.187   0.000  0.00  0.00    +0.000 OA
ATOM     33  O   UNL     1       7.094  -4.774   0.000  0.00  0.00    +0.000 OA
ATOM     34  O   UNL     1       7.094  -6.425   0.000  0.00  0.00    +0.000 OA
ATOM     35  O   UNL     1       5.665  -7.250   0.000  0.00  0.00    +0.000 OA
ATOM     36  C   UNL     1       5.665  -4.774   0.000  0.00  0.00    +0.000 C 
ATOM     37  C   UNL     1       6.380  -5.187   0.000  0.00  0.00    +0.000 C 
ATOM     38  C   UNL     1       6.380  -6.012   0.000  0.00  0.00    +0.000 C 
ATOM     39  C   UNL     1       5.665  -6.425   0.000  0.00  0.00    +0.000 C 
ATOM     40  C   UNL     1       4.951  -6.012   0.000  0.00  0.00    +0.000 C 
BRANCH  40  42
ATOM     41  O   UNL     1       4.236  -7.250   0.000  0.00  0.00    +0.000 OA
ATOM     42  C   UNL     1       4.236  -6.425   0.000  0.00  0.00    +0.000 C 
ENDBRANCH  40  42
ENDBRANCH  31  36
ENDBRANCH  24  31
ENDBRANCH  20  27
ENDBRANCH   4  20
BRANCH   5  43
ATOM     43  O   UNL     1       6.407   2.292   0.000  0.00  0.00    +0.000 OA
BRANCH  43  50
ATOM     44  O   UNL     1       4.979   2.298   0.000  0.00  0.00    +0.000 OA
ATOM     45  O   UNL     1       4.988   4.773   0.000  0.00  0.00    +0.000 OA
ATOM     46  O   UNL     1       3.556   3.953   0.000  0.00  0.00    +0.000 OA
ATOM     47  C   UNL     1       5.698   3.533   0.000  0.00  0.00    +0.000 C 
ATOM     48  C   UNL     1       4.985   3.948   0.000  0.00  0.00    +0.000 C 
ATOM     49  C   UNL     1       4.269   3.538   0.000  0.00  0.00    +0.000 C 
ATOM     50  C   UNL     1       5.695   2.708   0.000  0.00  0.00    +0.000 C 
ATOM     51  C   UNL     1       4.266   2.713   0.000  0.00  0.00    +0.000 C 
ATOM     52  C   UNL     1       3.550   2.303   0.000  0.00  0.00    +0.000 C 
BRANCH  47  53
ATOM     53  O   UNL     1       6.414   3.942   0.000  0.00  0.00    +0.000 OA
BRANCH  53  58
ATOM     54  O   UNL     1       5.704   5.183   0.000  0.00  0.00    +0.000 OA
ATOM     55  O   UNL     1       7.846   4.762   0.000  0.00  0.00    +0.000 OA
ATOM     56  O   UNL     1       7.852   6.412   0.000  0.00  0.00    +0.000 OA
ATOM     57  O   UNL     1       6.427   7.242   0.000  0.00  0.00    +0.000 OA
ATOM     58  C   UNL     1       6.417   4.767   0.000  0.00  0.00    +0.000 C 
ATOM     59  C   UNL     1       7.133   5.177   0.000  0.00  0.00    +0.000 C 
ATOM     60  C   UNL     1       7.136   6.002   0.000  0.00  0.00    +0.000 C 
ATOM     61  C   UNL     1       6.423   6.417   0.000  0.00  0.00    +0.000 C 
ATOM     62  C   UNL     1       5.707   6.008   0.000  0.00  0.00    +0.000 C 
BRANCH  62  64
ATOM     63  O   UNL     1       4.998   7.248   0.000  0.00  0.00    +0.000 OA
ATOM     64  C   UNL     1       4.995   6.423   0.000  0.00  0.00    +0.000 C 
ENDBRANCH  62  64
ENDBRANCH  53  58
ENDBRANCH  47  53
ENDBRANCH  43  50
ENDBRANCH   5  43
BRANCH   6  65
ATOM     65  C   UNL     1       7.125  -1.449   0.000  0.00  0.00    +0.000 C 
BRANCH  65  66
ATOM     66  C   UNL     1       7.837  -1.031   0.000  0.00  0.00    +0.000 C 
ATOM     67  C   UNL     1       8.554  -1.438   0.000  0.00  0.00    +0.000 C 
ATOM     68  C   UNL     1       9.266  -1.020   0.000  0.00  0.00    +0.000 C 
ATOM     69  C   UNL     1       8.561  -2.263   0.000  0.00  0.00    +0.000 C 
ENDBRANCH  65  66
ENDBRANCH   6  65
TORSDOF 14
