REMARK  Name = 44258974
REMARK  13 active torsions:
REMARK  status: ('A' for Active; 'I' for Inactive)
REMARK    1  A    between atoms: O_1  and  C_23
REMARK    2  A    between atoms: O_1  and  C_25
REMARK    3  A    between atoms: O_7  and  C_32
REMARK    4  A    between atoms: O_7  and  C_40
REMARK    5  A    between atoms: O_10  and  C_33
REMARK    6  A    between atoms: O_10  and  C_48
REMARK    7  A    between atoms: O_12  and  C_39
REMARK    8  A    between atoms: O_12  and  C_46
REMARK    9  A    between atoms: O_21  and  C_62
REMARK   10  A    between atoms: C_31  and  C_33
REMARK   11  A    between atoms: C_48  and  C_51
REMARK   12  A    between atoms: C_50  and  C_52
REMARK   13  A    between atoms: C_55  and  C_58
REMARK                            x       y       z     vdW  Elec       q    Type
REMARK                         _______ _______ _______ _____ _____    ______ ____
ROOT
ATOM      1  O   UNL     1      10.224  -1.062   0.000  0.00  0.00    +0.000 OA
ATOM      2  O   UNL     1       8.795  -2.712   0.000  0.00  0.00    +0.000 OA
ATOM      3  O   UNL     1      11.653  -2.712   0.000  0.00  0.00    +0.000 OA
ATOM      4  C   UNL     1      10.224  -2.712   0.000  0.00  0.00    +0.000 C 
ATOM      5  C   UNL     1       9.509  -2.300   0.000  0.00  0.00    +0.000 C 
ATOM      6  C   UNL     1      10.938  -2.300   0.000  0.00  0.00    +0.000 C 
ATOM      7  C   UNL     1       9.509  -1.474   0.000  0.00  0.00    +0.000 C 
ATOM      8  C   UNL     1      10.938  -1.474   0.000  0.00  0.00    +0.000 C 
ATOM      9  C   UNL     1       8.795  -1.062   0.000  0.00  0.00    +0.000 C 
ENDROOT
BRANCH   4  10
ATOM     10  O   UNL     1      10.224  -3.537   0.000  0.00  0.00    +0.000 OA
BRANCH  10  15
ATOM     11  O   UNL     1       8.795  -3.537   0.000  0.00  0.00    +0.000 OA
ATOM     12  O   UNL     1      10.224  -5.187   0.000  0.00  0.00    +0.000 OA
ATOM     13  O   UNL     1       8.795  -6.012   0.000  0.00  0.00    +0.000 OA
ATOM     14  O   UNL     1       7.366  -5.187   0.000  0.00  0.00    +0.000 OA
ATOM     15  C   UNL     1       9.509  -3.950   0.000  0.00  0.00    +0.000 C 
ATOM     16  C   UNL     1       9.509  -4.774   0.000  0.00  0.00    +0.000 C 
ATOM     17  C   UNL     1       8.795  -5.187   0.000  0.00  0.00    +0.000 C 
ATOM     18  C   UNL     1       8.080  -4.774   0.000  0.00  0.00    +0.000 C 
ATOM     19  C   UNL     1       8.080  -3.950   0.000  0.00  0.00    +0.000 C 
BRANCH  19  20
ATOM     20  C   UNL     1       7.366  -3.537   0.000  0.00  0.00    +0.000 C 
BRANCH  20  21
ATOM     21  O   UNL     1       6.651  -3.950   0.000  0.00  0.00    +0.000 OA
BRANCH  21  23
ATOM     22  O   UNL     1       5.937  -2.712   0.000  0.00  0.00    +0.000 OA
ATOM     23  C   UNL     1       5.937  -3.537   0.000  0.00  0.00    +0.000 C 
BRANCH  23  24
ATOM     24  C   UNL     1       5.222  -3.950   0.000  0.00  0.00    +0.000 C 
ATOM     25  C   UNL     1       4.508  -3.537   0.000  0.00  0.00    +0.000 C 
BRANCH  25  27
ATOM     26  O   UNL     1       1.650  -5.187   0.000  0.00  0.00    +0.000 OA
ATOM     27  C   UNL     1       3.793  -3.950   0.000  0.00  0.00    +0.000 A 
ATOM     28  C   UNL     1       3.079  -3.537   0.000  0.00  0.00    +0.000 A 
ATOM     29  C   UNL     1       3.793  -4.774   0.000  0.00  0.00    +0.000 A 
ATOM     30  C   UNL     1       2.364  -3.950   0.000  0.00  0.00    +0.000 A 
ATOM     31  C   UNL     1       3.079  -5.187   0.000  0.00  0.00    +0.000 A 
ATOM     32  C   UNL     1       2.364  -4.774   0.000  0.00  0.00    +0.000 A 
BRANCH  30  33
ATOM     33  O   UNL     1       1.650  -3.537   0.000  0.00  0.00    +0.000 OA
ATOM     34  C   UNL     1       1.650  -2.712   0.000  0.00  0.00    +0.000 C 
ENDBRANCH  30  33
ENDBRANCH  25  27
ENDBRANCH  23  24
ENDBRANCH  21  23
ENDBRANCH  20  21
ENDBRANCH  19  20
ENDBRANCH  10  15
ENDBRANCH   4  10
BRANCH   8  35
ATOM     35  O   UNL     1      11.653  -1.062   0.000  0.00  0.00    +0.000 OA
BRANCH  35  39
ATOM     36  O   UNL     1      13.101   1.464   0.000  0.00  0.00    +0.000 OA
ATOM     37  O   UNL     1      10.212   1.478   0.000  0.00  0.00    +0.000 OA
ATOM     38  O   UNL     1      10.963   2.710   0.000  0.00  0.00    +0.000 OA
ATOM     39  C   UNL     1      11.653  -0.237   0.000  0.00  0.00    +0.000 A 
ATOM     40  C   UNL     1      12.395   0.196   0.000  0.00  0.00    +0.000 A 
ATOM     41  C   UNL     1      10.910   0.196   0.000  0.00  0.00    +0.000 A 
ATOM     42  C   UNL     1      12.385   1.055   0.000  0.00  0.00    +0.000 A 
ATOM     43  C   UNL     1      11.672   1.470   0.000  0.00  0.00    +0.000 A 
ATOM     44  C   UNL     1      12.392   2.705   0.000  0.00  0.00    +0.000 A 
ATOM     45  C   UNL     1      10.920   1.055   0.000  0.00  0.00    +0.000 A 
ATOM     46  C   UNL     1      11.675   2.295   0.000  0.00  0.00    +0.000 A 
ATOM     47  C   UNL     1      13.104   2.289   0.000  0.00  0.00    +0.000 A 
BRANCH  47  49
ATOM     48  O   UNL     1      15.969   3.929   0.000  0.00  0.00    +0.000 OA
ATOM     49  C   UNL     1      13.820   2.699   0.000  0.00  0.00    +0.000 A 
ATOM     50  C   UNL     1      13.824   3.524   0.000  0.00  0.00    +0.000 A 
ATOM     51  C   UNL     1      14.533   2.284   0.000  0.00  0.00    +0.000 A 
ATOM     52  C   UNL     1      14.540   3.934   0.000  0.00  0.00    +0.000 A 
ATOM     53  C   UNL     1      15.249   2.694   0.000  0.00  0.00    +0.000 A 
ATOM     54  C   UNL     1      15.253   3.519   0.000  0.00  0.00    +0.000 A 
ENDBRANCH  47  49
BRANCH  44  55
ATOM     55  O   UNL     1      12.395   3.530   0.000  0.00  0.00    +0.000 OA
BRANCH  55  64
ATOM     56  O   UNL     1      10.966   3.535   0.000  0.00  0.00    +0.000 OA
ATOM     57  O   UNL     1      10.975   6.010   0.000  0.00  0.00    +0.000 OA
ATOM     58  O   UNL     1       9.543   5.191   0.000  0.00  0.00    +0.000 OA
ATOM     59  O   UNL     1      12.401   5.180   0.000  0.00  0.00    +0.000 OA
ATOM     60  C   UNL     1      10.972   5.185   0.000  0.00  0.00    +0.000 C 
ATOM     61  C   UNL     1      10.256   4.776   0.000  0.00  0.00    +0.000 C 
ATOM     62  C   UNL     1      11.685   4.770   0.000  0.00  0.00    +0.000 C 
ATOM     63  C   UNL     1      10.253   3.951   0.000  0.00  0.00    +0.000 C 
ATOM     64  C   UNL     1      11.682   3.945   0.000  0.00  0.00    +0.000 C 
ATOM     65  C   UNL     1       9.537   3.541   0.000  0.00  0.00    +0.000 C 
ENDBRANCH  55  64
ENDBRANCH  44  55
ENDBRANCH  35  39
ENDBRANCH   8  35
TORSDOF 13
