REMARK  Name = 13058505
REMARK  2 active torsions:
REMARK  status: ('A' for Active; 'I' for Inactive)
REMARK    1  A    between atoms: O_3  and  C_19
REMARK    2  A    between atoms: C_5  and  C_7
REMARK                            x       y       z     vdW  Elec       q    Type
REMARK                         _______ _______ _______ _____ _____    ______ ____
ROOT
ATOM      1  O   UNL     1       5.006  -0.619   0.000  0.00  0.00    +0.000 OA
ATOM      2  O   UNL     1       5.006   1.856   0.000  0.00  0.00    +0.000 OA
ATOM      3  O   UNL     1       2.094  -0.639   0.000  0.00  0.00    +0.000 OA
ATOM      4  C   UNL     1       5.721  -0.206   0.000  0.00  0.00    +0.000 C 
ATOM      5  C   UNL     1       5.721   0.619   0.000  0.00  0.00    +0.000 C 
ATOM      6  C   UNL     1       5.006   1.031   0.000  0.00  0.00    +0.000 C 
ATOM      7  C   UNL     1       4.292   0.619   0.000  0.00  0.00    +0.000 A 
ATOM      8  C   UNL     1       4.292  -0.206   0.000  0.00  0.00    +0.000 A 
ATOM      9  C   UNL     1       3.554   1.060   0.000  0.00  0.00    +0.000 A 
ATOM     10  C   UNL     1       3.554  -0.647   0.000  0.00  0.00    +0.000 A 
ATOM     11  C   UNL     1       2.807  -0.223   0.000  0.00  0.00    +0.000 A 
ATOM     12  C   UNL     1       2.807   0.636   0.000  0.00  0.00    +0.000 A 
ENDROOT
BRANCH   4  13
ATOM     13  C   UNL     1       6.435  -0.619   0.000  0.00  0.00    +0.000 A 
ATOM     14  C   UNL     1       7.150  -0.206   0.000  0.00  0.00    +0.000 A 
ATOM     15  C   UNL     1       6.435  -1.444   0.000  0.00  0.00    +0.000 A 
ATOM     16  C   UNL     1       7.864  -0.619   0.000  0.00  0.00    +0.000 A 
ATOM     17  C   UNL     1       7.150  -1.856   0.000  0.00  0.00    +0.000 A 
ATOM     18  C   UNL     1       7.864  -1.444   0.000  0.00  0.00    +0.000 A 
BRANCH  18  19
ATOM     19  O   UNL     1       8.579  -1.856   0.000  0.00  0.00    +0.000 OA
ATOM     20  C   UNL     1       9.293  -1.444   0.000  0.00  0.00    +0.000 C 
ENDBRANCH  18  19
ENDBRANCH   4  13
TORSDOF 2
