REMARK  Name = 42608056
REMARK  4 active torsions:
REMARK  status: ('A' for Active; 'I' for Inactive)
REMARK    1  A    between atoms: O_5  and  C_18
REMARK    2  A    between atoms: O_6  and  C_20
REMARK    3  A    between atoms: O_7  and  C_22
REMARK    4  A    between atoms: C_8  and  C_10
REMARK                            x       y       z     vdW  Elec       q    Type
REMARK                         _______ _______ _______ _____ _____    ______ ____
ROOT
ATOM      1  O   UNL     1       5.278  -0.351   0.000  0.00  0.00    +0.000 OA
ATOM      2  O   UNL     1       5.278   2.124   0.000  0.00  0.00    +0.000 OA
ATOM      3  O   UNL     1       3.836   2.153   0.000  0.00  0.00    +0.000 OA
ATOM      4  C   UNL     1       5.993   0.061   0.000  0.00  0.00    +0.000 C 
ATOM      5  C   UNL     1       5.993   0.886   0.000  0.00  0.00    +0.000 C 
ATOM      6  C   UNL     1       4.564   0.886   0.000  0.00  0.00    +0.000 A 
ATOM      7  C   UNL     1       5.278   1.299   0.000  0.00  0.00    +0.000 C 
ATOM      8  C   UNL     1       4.564   0.061   0.000  0.00  0.00    +0.000 A 
ATOM      9  C   UNL     1       3.826   1.328   0.000  0.00  0.00    +0.000 A 
ATOM     10  C   UNL     1       3.826  -0.380   0.000  0.00  0.00    +0.000 A 
ATOM     11  C   UNL     1       3.079   0.044   0.000  0.00  0.00    +0.000 A 
ATOM     12  C   UNL     1       3.079   0.904   0.000  0.00  0.00    +0.000 A 
ENDROOT
BRANCH   4  14
ATOM     13  O   UNL     1       5.993  -1.589   0.000  0.00  0.00    +0.000 OA
ATOM     14  C   UNL     1       6.707  -0.351   0.000  0.00  0.00    +0.000 A 
ATOM     15  C   UNL     1       6.707  -1.176   0.000  0.00  0.00    +0.000 A 
ATOM     16  C   UNL     1       7.422   0.061   0.000  0.00  0.00    +0.000 A 
ATOM     17  C   UNL     1       8.136  -0.351   0.000  0.00  0.00    +0.000 A 
ATOM     18  C   UNL     1       7.422  -1.589   0.000  0.00  0.00    +0.000 A 
ATOM     19  C   UNL     1       8.136  -1.176   0.000  0.00  0.00    +0.000 A 
BRANCH  17  20
ATOM     20  O   UNL     1       8.851   0.061   0.000  0.00  0.00    +0.000 OA
ATOM     21  C   UNL     1       8.851   0.886   0.000  0.00  0.00    +0.000 C 
ENDBRANCH  17  20
BRANCH  19  22
ATOM     22  O   UNL     1       8.851  -1.589   0.000  0.00  0.00    +0.000 OA
ATOM     23  C   UNL     1       8.851  -2.413   0.000  0.00  0.00    +0.000 C 
ENDBRANCH  19  22
ENDBRANCH   4  14
BRANCH  11  24
ATOM     24  O   UNL     1       2.366  -0.371   0.000  0.00  0.00    +0.000 OA
ATOM     25  C   UNL     1       1.650   0.039   0.000  0.00  0.00    +0.000 C 
ENDBRANCH  11  24
TORSDOF 4
