REMARK  Name = 44259953
REMARK  7 active torsions:
REMARK  status: ('A' for Active; 'I' for Inactive)
REMARK    1  A    between atoms: O_2  and  C_14
REMARK    2  A    between atoms: O_2  and  C_21
REMARK    3  A    between atoms: O_3  and  C_15
REMARK    4  A    between atoms: O_3  and  C_22
REMARK    5  A    between atoms: O_4  and  C_17
REMARK    6  A    between atoms: O_4  and  C_19
REMARK    7  A    between atoms: C_30  and  C_32
REMARK                            x       y       z     vdW  Elec       q    Type
REMARK                         _______ _______ _______ _____ _____    ______ ____
ROOT
ATOM      1  O   UNL     1       6.377   0.913   0.000  0.00  0.00    +0.000 OA
ATOM      2  O   UNL     1       3.465   0.893   0.000  0.00  0.00    +0.000 OA
ATOM      3  O   UNL     1       4.934   3.417   0.000  0.00  0.00    +0.000 OA
ATOM      4  O   UNL     1       7.806   2.563   0.000  0.00  0.00    +0.000 OA
ATOM      5  O   UNL     1       6.377   3.388   0.000  0.00  0.00    +0.000 OA
ATOM      6  C   UNL     1       4.925   0.884   0.000  0.00  0.00    +0.000 A 
ATOM      7  C   UNL     1       5.662   1.326   0.000  0.00  0.00    +0.000 A 
ATOM      8  C   UNL     1       4.178   1.308   0.000  0.00  0.00    +0.000 A 
ATOM      9  C   UNL     1       5.662   2.151   0.000  0.00  0.00    +0.000 A 
ATOM     10  C   UNL     1       4.925   2.592   0.000  0.00  0.00    +0.000 A 
ATOM     11  C   UNL     1       4.178   2.168   0.000  0.00  0.00    +0.000 A 
ATOM     12  C   UNL     1       6.377   2.563   0.000  0.00  0.00    +0.000 A 
ATOM     13  C   UNL     1       7.091   1.326   0.000  0.00  0.00    +0.000 A 
ATOM     14  C   UNL     1       7.091   2.151   0.000  0.00  0.00    +0.000 A 
ENDROOT
BRANCH  13  16
ATOM     15  O   UNL     1       9.949  -0.324   0.000  0.00  0.00    +0.000 OA
ATOM     16  C   UNL     1       7.806   0.913   0.000  0.00  0.00    +0.000 A 
ATOM     17  C   UNL     1       8.520   1.326   0.000  0.00  0.00    +0.000 A 
ATOM     18  C   UNL     1       7.806   0.088   0.000  0.00  0.00    +0.000 A 
ATOM     19  C   UNL     1       9.235   0.913   0.000  0.00  0.00    +0.000 A 
ATOM     20  C   UNL     1       8.520  -0.324   0.000  0.00  0.00    +0.000 A 
ATOM     21  C   UNL     1       9.235   0.088   0.000  0.00  0.00    +0.000 A 
ENDBRANCH  13  16
BRANCH   6  22
ATOM     22  O   UNL     1       4.934   0.060   0.000  0.00  0.00    +0.000 OA
BRANCH  22  28
ATOM     23  O   UNL     1       3.506   0.043   0.000  0.00  0.00    +0.000 OA
ATOM     24  O   UNL     1       2.096  -1.623   0.000  0.00  0.00    +0.000 OA
ATOM     25  C   UNL     1       3.525  -1.607   0.000  0.00  0.00    +0.000 C 
ATOM     26  C   UNL     1       4.234  -1.186   0.000  0.00  0.00    +0.000 C 
ATOM     27  C   UNL     1       2.806  -1.203   0.000  0.00  0.00    +0.000 C 
ATOM     28  C   UNL     1       4.225  -0.361   0.000  0.00  0.00    +0.000 C 
ATOM     29  C   UNL     1       2.796  -0.378   0.000  0.00  0.00    +0.000 C 
BRANCH  25  30
ATOM     30  O   UNL     1       3.534  -2.432   0.000  0.00  0.00    +0.000 OA
BRANCH  30  32
ATOM     31  O   UNL     1       2.105  -2.448   0.000  0.00  0.00    +0.000 OA
ATOM     32  C   UNL     1       2.825  -2.853   0.000  0.00  0.00    +0.000 C 
ATOM     33  C   UNL     1       2.834  -3.678   0.000  0.00  0.00    +0.000 C 
ENDBRANCH  30  32
ENDBRANCH  25  30
BRANCH  26  34
ATOM     34  O   UNL     1       4.954  -1.590   0.000  0.00  0.00    +0.000 OA
BRANCH  34  36
ATOM     35  O   UNL     1       4.253  -2.836   0.000  0.00  0.00    +0.000 OA
ATOM     36  C   UNL     1       4.963  -2.415   0.000  0.00  0.00    +0.000 C 
ATOM     37  C   UNL     1       5.682  -2.820   0.000  0.00  0.00    +0.000 C 
ENDBRANCH  34  36
ENDBRANCH  26  34
ENDBRANCH  22  28
ENDBRANCH   6  22
TORSDOF 7
