REMARK  Name = 131833702
REMARK  2 active torsions:
REMARK  status: ('A' for Active; 'I' for Inactive)
REMARK    1  A    between atoms: C_9  and  C_13
REMARK    2  A    between atoms: C_22  and  C_24
REMARK                            x       y       z     vdW  Elec       q    Type
REMARK                         _______ _______ _______ _____ _____    ______ ____
ROOT
ATOM      1  O   UNL     1       6.674  -1.383   0.000  0.00  0.00    +0.000 OA
ATOM      2  O   UNL     1       5.222   1.121   0.000  0.00  0.00    +0.000 OA
ATOM      3  O   UNL     1       3.793  -1.354   0.000  0.00  0.00    +0.000 OA
ATOM      4  O   UNL     1       6.665   1.149   0.000  0.00  0.00    +0.000 OA
ATOM      5  C   UNL     1       4.508  -0.117   0.000  0.00  0.00    +0.000 A 
ATOM      6  C   UNL     1       5.222   0.296   0.000  0.00  0.00    +0.000 A 
ATOM      7  C   UNL     1       4.508  -0.942   0.000  0.00  0.00    +0.000 A 
ATOM      8  C   UNL     1       5.937  -0.117   0.000  0.00  0.00    +0.000 A 
ATOM      9  C   UNL     1       5.937  -0.942   0.000  0.00  0.00    +0.000 A 
ATOM     10  C   UNL     1       5.222  -1.354   0.000  0.00  0.00    +0.000 A 
ATOM     11  C   UNL     1       6.674   0.325   0.000  0.00  0.00    +0.000 A 
ATOM     12  C   UNL     1       7.422  -0.959   0.000  0.00  0.00    +0.000 A 
ATOM     13  C   UNL     1       7.422  -0.099   0.000  0.00  0.00    +0.000 A 
ENDROOT
BRANCH   5  18
ATOM     14  O   UNL     1       3.079  -0.117   0.000  0.00  0.00    +0.000 OA
ATOM     15  O   UNL     1       4.508   1.533   0.000  0.00  0.00    +0.000 OA
ATOM     16  O   UNL     1       3.079   2.358   0.000  0.00  0.00    +0.000 OA
ATOM     17  O   UNL     1       1.650   1.533   0.000  0.00  0.00    +0.000 OA
ATOM     18  C   UNL     1       3.793   0.296   0.000  0.00  0.00    +0.000 C 
ATOM     19  C   UNL     1       3.793   1.121   0.000  0.00  0.00    +0.000 C 
ATOM     20  C   UNL     1       3.079   1.533   0.000  0.00  0.00    +0.000 C 
ATOM     21  C   UNL     1       2.364   0.296   0.000  0.00  0.00    +0.000 C 
ATOM     22  C   UNL     1       2.364   1.121   0.000  0.00  0.00    +0.000 C 
ATOM     23  C   UNL     1       1.650  -0.117   0.000  0.00  0.00    +0.000 C 
ENDBRANCH   5  18
BRANCH  12  24
ATOM     24  C   UNL     1       8.135  -1.374   0.000  0.00  0.00    +0.000 A 
ATOM     25  C   UNL     1       8.851  -0.964   0.000  0.00  0.00    +0.000 A 
ATOM     26  C   UNL     1       8.132  -2.199   0.000  0.00  0.00    +0.000 A 
ATOM     27  C   UNL     1       9.564  -1.379   0.000  0.00  0.00    +0.000 A 
ATOM     28  C   UNL     1       8.844  -2.614   0.000  0.00  0.00    +0.000 A 
ATOM     29  C   UNL     1       9.560  -2.204   0.000  0.00  0.00    +0.000 A 
ENDBRANCH  12  24
TORSDOF 2
