REMARK  Name = 189609
REMARK  2 active torsions:
REMARK  status: ('A' for Active; 'I' for Inactive)
REMARK    1  A    between atoms: O_4  and  C_9
REMARK    2  A    between atoms: C_13  and  C_16
REMARK                            x       y       z     vdW  Elec       q    Type
REMARK                         _______ _______ _______ _____ _____    ______ ____
ROOT
ATOM      1  O   UNL     1       4.539  -0.842   0.000  0.00  0.00    +0.000 OA
ATOM      2  O   UNL     1       7.486   0.675   0.000  0.00  0.00    +0.000 OA
ATOM      3  O   UNL     1       7.486  -0.653   0.000  0.00  0.00    +0.000 OA
ATOM      4  O   UNL     1       4.549   1.690   0.000  0.00  0.00    +0.000 OA
ATOM      5  C   UNL     1       5.277   0.424   0.000  0.00  0.00    +0.000 A 
ATOM      6  C   UNL     1       5.277  -0.401   0.000  0.00  0.00    +0.000 A 
ATOM      7  C   UNL     1       6.706   0.424   0.000  0.00  0.00    +0.000 A 
ATOM      8  C   UNL     1       5.991   0.836   0.000  0.00  0.00    +0.000 A 
ATOM      9  C   UNL     1       6.706  -0.401   0.000  0.00  0.00    +0.000 A 
ATOM     10  C   UNL     1       5.991  -0.814   0.000  0.00  0.00    +0.000 A 
ATOM     11  C   UNL     1       4.539   0.865   0.000  0.00  0.00    +0.000 A 
ATOM     12  C   UNL     1       3.792  -0.418   0.000  0.00  0.00    +0.000 A 
ATOM     13  C   UNL     1       3.792   0.441   0.000  0.00  0.00    +0.000 A 
ATOM     14  C   UNL     1       7.968   0.011   0.000  0.00  0.00    +0.000 C 
ENDROOT
BRANCH  12  15
ATOM     15  C   UNL     1       3.079  -0.834   0.000  0.00  0.00    +0.000 A 
ATOM     16  C   UNL     1       2.363  -0.424   0.000  0.00  0.00    +0.000 A 
ATOM     17  C   UNL     1       3.082  -1.659   0.000  0.00  0.00    +0.000 A 
ATOM     18  C   UNL     1       1.650  -0.839   0.000  0.00  0.00    +0.000 A 
ATOM     19  C   UNL     1       2.369  -2.074   0.000  0.00  0.00    +0.000 A 
ATOM     20  C   UNL     1       1.653  -1.664   0.000  0.00  0.00    +0.000 A 
ENDBRANCH  12  15
BRANCH   8  21
ATOM     21  O   UNL     1       5.991   1.661   0.000  0.00  0.00    +0.000 OA
ATOM     22  C   UNL     1       6.706   2.074   0.000  0.00  0.00    +0.000 C 
ENDBRANCH   8  21
TORSDOF 2
