REMARK  Name = 44260006
REMARK  6 active torsions:
REMARK  status: ('A' for Active; 'I' for Inactive)
REMARK    1  A    between atoms: O_2  and  C_18
REMARK    2  A    between atoms: O_2  and  C_20
REMARK    3  A    between atoms: O_10  and  C_31
REMARK    4  A    between atoms: O_11  and  C_33
REMARK    5  A    between atoms: C_16  and  C_19
REMARK    6  A    between atoms: C_23  and  C_26
REMARK                            x       y       z     vdW  Elec       q    Type
REMARK                         _______ _______ _______ _____ _____    ______ ____
ROOT
ATOM      1  O   UNL     1       4.236  -1.335   0.000  0.00  0.00    +0.000 OA
ATOM      2  C   UNL     1       5.665  -1.335   0.000  0.00  0.00    +0.000 A 
ATOM      3  C   UNL     1       4.951  -0.922   0.000  0.00  0.00    +0.000 A 
ATOM      4  C   UNL     1       6.380  -0.922   0.000  0.00  0.00    +0.000 A 
ATOM      5  C   UNL     1       5.665   0.316   0.000  0.00  0.00    +0.000 A 
ATOM      6  C   UNL     1       4.951  -0.097   0.000  0.00  0.00    +0.000 A 
ATOM      7  C   UNL     1       6.380  -0.097   0.000  0.00  0.00    +0.000 A 
ENDROOT
BRANCH   5  12
ATOM      8  O   UNL     1       6.380   1.553   0.000  0.00  0.00    +0.000 OA
ATOM      9  O   UNL     1       4.236   1.141   0.000  0.00  0.00    +0.000 OA
ATOM     10  O   UNL     1       4.933   4.054   0.000  0.00  0.00    +0.000 OA
ATOM     11  O   UNL     1       4.236   2.791   0.000  0.00  0.00    +0.000 OA
ATOM     12  C   UNL     1       5.665   1.141   0.000  0.00  0.00    +0.000 A 
ATOM     13  C   UNL     1       6.380   2.378   0.000  0.00  0.00    +0.000 A 
ATOM     14  C   UNL     1       5.665   2.791   0.000  0.00  0.00    +0.000 A 
ATOM     15  C   UNL     1       4.951   1.553   0.000  0.00  0.00    +0.000 A 
ATOM     16  C   UNL     1       4.951   2.378   0.000  0.00  0.00    +0.000 A 
ATOM     17  C   UNL     1       7.131   2.796   0.000  0.00  0.00    +0.000 A 
ATOM     18  C   UNL     1       5.652   3.650   0.000  0.00  0.00    +0.000 A 
ATOM     19  C   UNL     1       7.137   3.655   0.000  0.00  0.00    +0.000 A 
ATOM     20  C   UNL     1       6.393   4.085   0.000  0.00  0.00    +0.000 A 
BRANCH  17  21
ATOM     21  O   UNL     1       7.840   2.375   0.000  0.00  0.00    +0.000 OA
ATOM     22  C   UNL     1       8.559   2.780   0.000  0.00  0.00    +0.000 C 
ENDBRANCH  17  21
BRANCH  19  23
ATOM     23  O   UNL     1       7.853   4.065   0.000  0.00  0.00    +0.000 OA
ATOM     24  C   UNL     1       7.856   4.890   0.000  0.00  0.00    +0.000 C 
ENDBRANCH  19  23
ENDBRANCH   5  12
BRANCH   2  25
ATOM     25  O   UNL     1       5.665  -2.159   0.000  0.00  0.00    +0.000 OA
BRANCH  25  34
ATOM     26  O   UNL     1       4.236  -2.159   0.000  0.00  0.00    +0.000 OA
ATOM     27  O   UNL     1       4.236  -4.634   0.000  0.00  0.00    +0.000 OA
ATOM     28  O   UNL     1       2.808  -3.809   0.000  0.00  0.00    +0.000 OA
ATOM     29  O   UNL     1       5.665  -3.809   0.000  0.00  0.00    +0.000 OA
ATOM     30  C   UNL     1       4.236  -3.809   0.000  0.00  0.00    +0.000 C 
ATOM     31  C   UNL     1       3.522  -3.397   0.000  0.00  0.00    +0.000 C 
ATOM     32  C   UNL     1       3.522  -2.572   0.000  0.00  0.00    +0.000 C 
ATOM     33  C   UNL     1       4.951  -3.397   0.000  0.00  0.00    +0.000 C 
ATOM     34  C   UNL     1       4.951  -2.572   0.000  0.00  0.00    +0.000 C 
BRANCH  32  36
ATOM     35  O   UNL     1       2.093  -2.572   0.000  0.00  0.00    +0.000 OA
ATOM     36  C   UNL     1       2.808  -2.159   0.000  0.00  0.00    +0.000 C 
ENDBRANCH  32  36
ENDBRANCH  25  34
ENDBRANCH   2  25
TORSDOF 6
