REMARK  Name = 44260005
REMARK  7 active torsions:
REMARK  status: ('A' for Active; 'I' for Inactive)
REMARK    1  A    between atoms: O_1  and  C_18
REMARK    2  A    between atoms: O_1  and  C_21
REMARK    3  A    between atoms: O_5  and  C_22
REMARK    4  A    between atoms: O_5  and  C_30
REMARK    5  A    between atoms: O_16  and  C_42
REMARK    6  A    between atoms: C_24  and  C_28
REMARK    7  A    between atoms: C_37  and  C_39
REMARK                            x       y       z     vdW  Elec       q    Type
REMARK                         _______ _______ _______ _____ _____    ______ ____
ROOT
ATOM      1  O   UNL     1       7.125   0.702   0.000  0.00  0.00    +0.000 OA
ATOM      2  O   UNL     1       7.114   2.378   0.000  0.00  0.00    +0.000 OA
ATOM      3  O   UNL     1       4.225   2.392   0.000  0.00  0.00    +0.000 OA
ATOM      4  O   UNL     1       4.975   3.624   0.000  0.00  0.00    +0.000 OA
ATOM      5  O   UNL     1       6.407   4.444   0.000  0.00  0.00    +0.000 OA
ATOM      6  C   UNL     1       5.665   0.677   0.000  0.00  0.00    +0.000 A 
ATOM      7  C   UNL     1       6.408   1.109   0.000  0.00  0.00    +0.000 A 
ATOM      8  C   UNL     1       4.923   1.109   0.000  0.00  0.00    +0.000 A 
ATOM      9  C   UNL     1       6.398   1.969   0.000  0.00  0.00    +0.000 A 
ATOM     10  C   UNL     1       4.933   1.969   0.000  0.00  0.00    +0.000 A 
ATOM     11  C   UNL     1       5.685   2.384   0.000  0.00  0.00    +0.000 A 
ATOM     12  C   UNL     1       5.688   3.209   0.000  0.00  0.00    +0.000 A 
ATOM     13  C   UNL     1       7.117   3.203   0.000  0.00  0.00    +0.000 A 
ATOM     14  C   UNL     1       6.404   3.619   0.000  0.00  0.00    +0.000 A 
ENDROOT
BRANCH  13  16
ATOM     15  O   UNL     1       9.981   4.842   0.000  0.00  0.00    +0.000 OA
ATOM     16  C   UNL     1       7.833   3.613   0.000  0.00  0.00    +0.000 A 
ATOM     17  C   UNL     1       8.546   3.198   0.000  0.00  0.00    +0.000 A 
ATOM     18  C   UNL     1       7.836   4.438   0.000  0.00  0.00    +0.000 A 
ATOM     19  C   UNL     1       9.262   3.608   0.000  0.00  0.00    +0.000 A 
ATOM     20  C   UNL     1       8.552   4.848   0.000  0.00  0.00    +0.000 A 
ATOM     21  C   UNL     1       9.265   4.433   0.000  0.00  0.00    +0.000 A 
BRANCH  19  22
ATOM     22  O   UNL     1       9.975   3.192   0.000  0.00  0.00    +0.000 OA
ATOM     23  C   UNL     1      10.691   3.602   0.000  0.00  0.00    +0.000 C 
ENDBRANCH  19  22
ENDBRANCH  13  16
BRANCH   6  24
ATOM     24  O   UNL     1       5.665  -0.148   0.000  0.00  0.00    +0.000 OA
BRANCH  24  31
ATOM     25  O   UNL     1       4.236  -0.148   0.000  0.00  0.00    +0.000 OA
ATOM     26  O   UNL     1       4.236  -2.623   0.000  0.00  0.00    +0.000 OA
ATOM     27  O   UNL     1       2.808  -1.798   0.000  0.00  0.00    +0.000 OA
ATOM     28  C   UNL     1       4.951  -1.386   0.000  0.00  0.00    +0.000 C 
ATOM     29  C   UNL     1       4.236  -1.798   0.000  0.00  0.00    +0.000 C 
ATOM     30  C   UNL     1       3.522  -1.386   0.000  0.00  0.00    +0.000 C 
ATOM     31  C   UNL     1       4.951  -0.561   0.000  0.00  0.00    +0.000 C 
ATOM     32  C   UNL     1       3.522  -0.561   0.000  0.00  0.00    +0.000 C 
BRANCH  32  34
ATOM     33  O   UNL     1       2.093  -0.561   0.000  0.00  0.00    +0.000 OA
ATOM     34  C   UNL     1       2.808  -0.148   0.000  0.00  0.00    +0.000 C 
ENDBRANCH  32  34
BRANCH  28  35
ATOM     35  O   UNL     1       5.665  -1.798   0.000  0.00  0.00    +0.000 OA
BRANCH  35  40
ATOM     36  O   UNL     1       4.951  -3.036   0.000  0.00  0.00    +0.000 OA
ATOM     37  O   UNL     1       7.094  -2.623   0.000  0.00  0.00    +0.000 OA
ATOM     38  O   UNL     1       7.094  -4.273   0.000  0.00  0.00    +0.000 OA
ATOM     39  O   UNL     1       5.665  -5.098   0.000  0.00  0.00    +0.000 OA
ATOM     40  C   UNL     1       5.665  -2.623   0.000  0.00  0.00    +0.000 C 
ATOM     41  C   UNL     1       6.380  -3.036   0.000  0.00  0.00    +0.000 C 
ATOM     42  C   UNL     1       6.380  -3.861   0.000  0.00  0.00    +0.000 C 
ATOM     43  C   UNL     1       5.665  -4.273   0.000  0.00  0.00    +0.000 C 
ATOM     44  C   UNL     1       4.951  -3.861   0.000  0.00  0.00    +0.000 C 
ATOM     45  C   UNL     1       4.236  -4.273   0.000  0.00  0.00    +0.000 C 
ENDBRANCH  35  40
ENDBRANCH  28  35
ENDBRANCH  24  31
ENDBRANCH   6  24
TORSDOF 7
