REMARK  Name = 44259630
REMARK  6 active torsions:
REMARK  status: ('A' for Active; 'I' for Inactive)
REMARK    1  A    between atoms: S_1  and  O_3
REMARK    2  A    between atoms: O_3  and  C_16
REMARK    3  A    between atoms: O_4  and  C_21
REMARK    4  A    between atoms: O_7  and  C_24
REMARK    5  A    between atoms: O_8  and  C_25
REMARK    6  A    between atoms: C_13  and  C_15
REMARK                            x       y       z     vdW  Elec       q    Type
REMARK                         _______ _______ _______ _____ _____    ______ ____
ROOT
ATOM      1  O   UNL     1       5.278  -0.540   0.000  0.00  0.00    +0.000 OA
ATOM      2  O   UNL     1       3.836   1.963   0.000  0.00  0.00    +0.000 OA
ATOM      3  O   UNL     1       5.278   1.935   0.000  0.00  0.00    +0.000 OA
ATOM      4  C   UNL     1       4.564   0.697   0.000  0.00  0.00    +0.000 A 
ATOM      5  C   UNL     1       5.993  -0.128   0.000  0.00  0.00    +0.000 A 
ATOM      6  C   UNL     1       4.564  -0.128   0.000  0.00  0.00    +0.000 A 
ATOM      7  C   UNL     1       5.993   0.697   0.000  0.00  0.00    +0.000 A 
ATOM      8  C   UNL     1       5.278   1.110   0.000  0.00  0.00    +0.000 A 
ATOM      9  C   UNL     1       3.826   1.138   0.000  0.00  0.00    +0.000 A 
ATOM     10  C   UNL     1       3.826  -0.569   0.000  0.00  0.00    +0.000 A 
ATOM     11  C   UNL     1       3.079  -0.145   0.000  0.00  0.00    +0.000 A 
ATOM     12  C   UNL     1       3.079   0.714   0.000  0.00  0.00    +0.000 A 
ENDROOT
BRANCH   5  13
ATOM     13  C   UNL     1       6.707  -0.540   0.000  0.00  0.00    +0.000 A 
ATOM     14  C   UNL     1       6.707  -1.365   0.000  0.00  0.00    +0.000 A 
ATOM     15  C   UNL     1       7.422  -0.128   0.000  0.00  0.00    +0.000 A 
ATOM     16  C   UNL     1       7.422  -1.778   0.000  0.00  0.00    +0.000 A 
ATOM     17  C   UNL     1       8.136  -1.365   0.000  0.00  0.00    +0.000 A 
ATOM     18  C   UNL     1       8.136  -0.540   0.000  0.00  0.00    +0.000 A 
BRANCH  16  19
ATOM     19  O   UNL     1       7.422  -2.603   0.000  0.00  0.00    +0.000 OA
ATOM     20  C   UNL     1       6.707  -3.015   0.000  0.00  0.00    +0.000 C 
ENDBRANCH  16  19
BRANCH  17  21
ATOM     21  O   UNL     1       8.851  -1.778   0.000  0.00  0.00    +0.000 OA
ATOM     22  C   UNL     1       9.565  -1.365   0.000  0.00  0.00    +0.000 C 
ENDBRANCH  17  21
ENDBRANCH   5  13
BRANCH  11  23
ATOM     23  O   UNL     1       2.366  -0.560   0.000  0.00  0.00    +0.000 OA
ATOM     24  C   UNL     1       1.650  -0.151   0.000  0.00  0.00    +0.000 C 
ENDBRANCH  11  23
BRANCH   7  25
ATOM     25  O   UNL     1       6.707   1.110   0.000  0.00  0.00    +0.000 OA
BRANCH  25  26
ATOM     26  S   UNL     1       6.707   1.935   0.000  0.00  0.00    +0.000 S 
ATOM     27  O   UNL     1       6.707   2.760   0.000  0.00  0.00    +0.000 OA
ATOM     28  O   UNL     1       7.532   1.935   0.000  0.00  0.00    +0.000 OA
ATOM     29  O   UNL     1       5.882   1.935   0.000  0.00  0.00    +0.000 OA
ENDBRANCH  25  26
ENDBRANCH   7  25
TORSDOF 6
