REMARK  Name = 44257137
REMARK  8 active torsions:
REMARK  status: ('A' for Active; 'I' for Inactive)
REMARK    1  A    between atoms: O_3  and  C_19
REMARK    2  A    between atoms: O_3  and  C_28
REMARK    3  A    between atoms: O_4  and  C_24
REMARK    4  A    between atoms: O_4  and  C_32
REMARK    5  A    between atoms: O_15  and  C_44
REMARK    6  A    between atoms: C_22  and  C_35
REMARK    7  A    between atoms: C_25  and  C_36
REMARK    8  A    between atoms: C_31  and  C_37
REMARK                            x       y       z     vdW  Elec       q    Type
REMARK                         _______ _______ _______ _____ _____    ______ ____
ROOT
ATOM      1  O   UNL     1       4.524   0.944   0.000  0.00  0.00    +0.000 OA
ATOM      2  O   UNL     1       6.722   2.202   0.000  0.00  0.00    +0.000 OA
ATOM      3  C   UNL     1       5.989   0.938   0.000  0.00  0.00    +0.000 A 
ATOM      4  C   UNL     1       6.003   1.798   0.000  0.00  0.00    +0.000 C 
ATOM      5  C   UNL     1       6.704   0.526   0.000  0.00  0.00    +0.000 A 
ATOM      6  C   UNL     1       5.262   2.233   0.000  0.00  0.00    +0.000 C 
ATOM      7  C   UNL     1       5.275   0.526   0.000  0.00  0.00    +0.000 A 
ATOM      8  C   UNL     1       4.517   1.803   0.000  0.00  0.00    +0.000 C 
ATOM      9  C   UNL     1       5.989  -0.712   0.000  0.00  0.00    +0.000 A 
ATOM     10  C   UNL     1       6.704  -0.299   0.000  0.00  0.00    +0.000 A 
ATOM     11  C   UNL     1       5.275  -0.299   0.000  0.00  0.00    +0.000 A 
ATOM     12  C   UNL     1       7.418  -0.712   0.000  0.00  0.00    +0.000 C 
ATOM     13  C   UNL     1       4.560  -0.712   0.000  0.00  0.00    +0.000 C 
ENDROOT
BRANCH   8  14
ATOM     14  C   UNL     1       3.801   2.213   0.000  0.00  0.00    +0.000 A 
ATOM     15  C   UNL     1       3.798   3.038   0.000  0.00  0.00    +0.000 A 
ATOM     16  C   UNL     1       3.088   1.798   0.000  0.00  0.00    +0.000 A 
ATOM     17  C   UNL     1       3.082   3.448   0.000  0.00  0.00    +0.000 A 
ATOM     18  C   UNL     1       2.373   2.208   0.000  0.00  0.00    +0.000 A 
ATOM     19  C   UNL     1       2.369   3.033   0.000  0.00  0.00    +0.000 A 
BRANCH  19  20
ATOM     20  O   UNL     1       1.653   3.442   0.000  0.00  0.00    +0.000 OA
ATOM     21  C   UNL     1       1.650   4.267   0.000  0.00  0.00    +0.000 C 
ENDBRANCH  19  20
ENDBRANCH   8  14
BRANCH   5  22
ATOM     22  O   UNL     1       7.418   0.938   0.000  0.00  0.00    +0.000 OA
BRANCH  22  30
ATOM     23  O   UNL     1       8.133  -0.299   0.000  0.00  0.00    +0.000 OA
ATOM     24  O   UNL     1      10.276   0.938   0.000  0.00  0.00    +0.000 OA
ATOM     25  O   UNL     1       8.847   1.764   0.000  0.00  0.00    +0.000 OA
ATOM     26  O   UNL     1      10.276  -0.712   0.000  0.00  0.00    +0.000 OA
ATOM     27  C   UNL     1       9.562   0.526   0.000  0.00  0.00    +0.000 C 
ATOM     28  C   UNL     1       8.847   0.938   0.000  0.00  0.00    +0.000 C 
ATOM     29  C   UNL     1       9.562  -0.299   0.000  0.00  0.00    +0.000 C 
ATOM     30  C   UNL     1       8.133   0.526   0.000  0.00  0.00    +0.000 C 
ATOM     31  C   UNL     1       8.847  -0.712   0.000  0.00  0.00    +0.000 C 
BRANCH  31  33
ATOM     32  O   UNL     1       9.562  -1.949   0.000  0.00  0.00    +0.000 OA
ATOM     33  C   UNL     1       8.847  -1.537   0.000  0.00  0.00    +0.000 C 
ENDBRANCH  31  33
ENDBRANCH  22  30
ENDBRANCH   5  22
BRANCH   9  34
ATOM     34  O   UNL     1       5.989  -1.537   0.000  0.00  0.00    +0.000 OA
BRANCH  34  42
ATOM     35  O   UNL     1       4.560  -1.537   0.000  0.00  0.00    +0.000 OA
ATOM     36  O   UNL     1       4.560  -4.012   0.000  0.00  0.00    +0.000 OA
ATOM     37  O   UNL     1       5.989  -3.187   0.000  0.00  0.00    +0.000 OA
ATOM     38  O   UNL     1       3.131  -3.187   0.000  0.00  0.00    +0.000 OA
ATOM     39  C   UNL     1       4.560  -3.187   0.000  0.00  0.00    +0.000 C 
ATOM     40  C   UNL     1       5.275  -2.774   0.000  0.00  0.00    +0.000 C 
ATOM     41  C   UNL     1       3.846  -2.774   0.000  0.00  0.00    +0.000 C 
ATOM     42  C   UNL     1       5.275  -1.949   0.000  0.00  0.00    +0.000 C 
ATOM     43  C   UNL     1       3.846  -1.949   0.000  0.00  0.00    +0.000 C 
BRANCH  43  45
ATOM     44  O   UNL     1       2.417  -1.949   0.000  0.00  0.00    +0.000 OA
ATOM     45  C   UNL     1       3.131  -1.537   0.000  0.00  0.00    +0.000 C 
ENDBRANCH  43  45
ENDBRANCH  34  42
ENDBRANCH   9  34
TORSDOF 8
