REMARK  Name = 75072287
REMARK  9 active torsions:
REMARK  status: ('A' for Active; 'I' for Inactive)
REMARK    1  A    between atoms: O_3  and  C_31
REMARK    2  A    between atoms: O_4  and  C_32
REMARK    3  A    between atoms: O_7  and  C_37
REMARK    4  A    between atoms: O_8  and  C_38
REMARK    5  A    between atoms: O_9  and  C_41
REMARK    6  A    between atoms: O_10  and  C_42
REMARK    7  A    between atoms: C_19  and  C_27
REMARK    8  A    between atoms: C_20  and  C_28
REMARK    9  A    between atoms: C_21  and  C_22
REMARK                            x       y       z     vdW  Elec       q    Type
REMARK                         _______ _______ _______ _____ _____    ______ ____
ROOT
ATOM      1  O   UNL     1       8.162  -2.091   0.000  0.00  0.00    +0.000 OA
ATOM      2  O   UNL     1       6.710  -2.888   0.000  0.00  0.00    +0.000 OA
ATOM      3  C   UNL     1       7.425  -0.825   0.000  0.00  0.00    +0.000 A 
ATOM      4  C   UNL     1       8.162  -0.384   0.000  0.00  0.00    +0.000 C 
ATOM      5  C   UNL     1       8.910  -0.808   0.000  0.00  0.00    +0.000 C 
ATOM      6  C   UNL     1       8.910  -1.667   0.000  0.00  0.00    +0.000 C 
ATOM      7  C   UNL     1       6.710  -0.412   0.000  0.00  0.00    +0.000 A 
ATOM      8  C   UNL     1       7.425  -1.650   0.000  0.00  0.00    +0.000 A 
ATOM      9  C   UNL     1       5.996  -0.825   0.000  0.00  0.00    +0.000 A 
ATOM     10  C   UNL     1       6.710  -2.062   0.000  0.00  0.00    +0.000 A 
ATOM     11  C   UNL     1       5.996  -1.650   0.000  0.00  0.00    +0.000 A 
ENDROOT
BRANCH   7  18
ATOM     12  O   UNL     1       5.258   2.091   0.000  0.00  0.00    +0.000 OA
ATOM     13  O   UNL     1       6.710   2.888   0.000  0.00  0.00    +0.000 OA
ATOM     14  C   UNL     1       5.996   0.825   0.000  0.00  0.00    +0.000 A 
ATOM     15  C   UNL     1       5.258   0.384   0.000  0.00  0.00    +0.000 C 
ATOM     16  C   UNL     1       4.511   0.808   0.000  0.00  0.00    +0.000 C 
ATOM     17  C   UNL     1       4.511   1.667   0.000  0.00  0.00    +0.000 C 
ATOM     18  C   UNL     1       6.710   0.412   0.000  0.00  0.00    +0.000 A 
ATOM     19  C   UNL     1       5.996   1.650   0.000  0.00  0.00    +0.000 A 
ATOM     20  C   UNL     1       7.425   0.825   0.000  0.00  0.00    +0.000 A 
ATOM     21  C   UNL     1       6.710   2.062   0.000  0.00  0.00    +0.000 A 
ATOM     22  C   UNL     1       7.425   1.650   0.000  0.00  0.00    +0.000 A 
BRANCH  17  24
ATOM     23  O   UNL     1       3.092   4.148   0.000  0.00  0.00    +0.000 OA
ATOM     24  C   UNL     1       3.798   2.082   0.000  0.00  0.00    +0.000 A 
ATOM     25  C   UNL     1       3.082   1.673   0.000  0.00  0.00    +0.000 A 
ATOM     26  C   UNL     1       3.801   2.907   0.000  0.00  0.00    +0.000 A 
ATOM     27  C   UNL     1       2.369   2.088   0.000  0.00  0.00    +0.000 A 
ATOM     28  C   UNL     1       3.088   3.323   0.000  0.00  0.00    +0.000 A 
ATOM     29  C   UNL     1       2.372   2.913   0.000  0.00  0.00    +0.000 A 
BRANCH  27  30
ATOM     30  O   UNL     1       1.653   1.678   0.000  0.00  0.00    +0.000 OA
ATOM     31  C   UNL     1       1.650   0.853   0.000  0.00  0.00    +0.000 C 
ENDBRANCH  27  30
BRANCH  29  32
ATOM     32  O   UNL     1       1.660   3.328   0.000  0.00  0.00    +0.000 OA
ATOM     33  C   UNL     1       1.663   4.153   0.000  0.00  0.00    +0.000 C 
ENDBRANCH  29  32
ENDBRANCH  17  24
BRANCH  22  34
ATOM     34  O   UNL     1       8.139   2.062   0.000  0.00  0.00    +0.000 OA
ATOM     35  C   UNL     1       8.854   1.650   0.000  0.00  0.00    +0.000 C 
ENDBRANCH  22  34
ENDBRANCH   7  18
BRANCH   6  37
ATOM     36  O   UNL     1      10.329  -4.148   0.000  0.00  0.00    +0.000 OA
ATOM     37  C   UNL     1       9.623  -2.082   0.000  0.00  0.00    +0.000 A 
ATOM     38  C   UNL     1      10.339  -1.673   0.000  0.00  0.00    +0.000 A 
ATOM     39  C   UNL     1       9.620  -2.907   0.000  0.00  0.00    +0.000 A 
ATOM     40  C   UNL     1      11.052  -2.088   0.000  0.00  0.00    +0.000 A 
ATOM     41  C   UNL     1      10.332  -3.323   0.000  0.00  0.00    +0.000 A 
ATOM     42  C   UNL     1      11.049  -2.913   0.000  0.00  0.00    +0.000 A 
BRANCH  40  43
ATOM     43  O   UNL     1      11.768  -1.678   0.000  0.00  0.00    +0.000 OA
ATOM     44  C   UNL     1      11.771  -0.853   0.000  0.00  0.00    +0.000 C 
ENDBRANCH  40  43
BRANCH  42  45
ATOM     45  O   UNL     1      11.761  -3.328   0.000  0.00  0.00    +0.000 OA
ATOM     46  C   UNL     1      12.477  -2.918   0.000  0.00  0.00    +0.000 C 
ENDBRANCH  42  45
ENDBRANCH   6  37
BRANCH  11  47
ATOM     47  O   UNL     1       5.282  -2.062   0.000  0.00  0.00    +0.000 OA
ATOM     48  C   UNL     1       4.567  -1.650   0.000  0.00  0.00    +0.000 C 
ENDBRANCH  11  47
TORSDOF 9
