REMARK  Name = 44259670
REMARK  8 active torsions:
REMARK  status: ('A' for Active; 'I' for Inactive)
REMARK    1  A    between atoms: O_3  and  C_21
REMARK    2  A    between atoms: O_3  and  C_26
REMARK    3  A    between atoms: O_6  and  C_25
REMARK    4  A    between atoms: O_6  and  C_28
REMARK    5  A    between atoms: O_13  and  C_36
REMARK    6  A    between atoms: C_17  and  C_26
REMARK    7  A    between atoms: C_24  and  C_27
REMARK    8  A    between atoms: C_35  and  C_37
REMARK                            x       y       z     vdW  Elec       q    Type
REMARK                         _______ _______ _______ _____ _____    ______ ____
ROOT
ATOM      1  O   UNL     1      10.356   1.141   0.000  0.00  0.00    +0.000 OA
ATOM      2  O   UNL     1       7.467   1.155   0.000  0.00  0.00    +0.000 OA
ATOM      3  O   UNL     1       8.217   2.387   0.000  0.00  0.00    +0.000 OA
ATOM      4  C   UNL     1       8.907  -0.561   0.000  0.00  0.00    +0.000 A 
ATOM      5  C   UNL     1       9.650  -0.128   0.000  0.00  0.00    +0.000 A 
ATOM      6  C   UNL     1       8.165  -0.128   0.000  0.00  0.00    +0.000 A 
ATOM      7  C   UNL     1       9.640   0.731   0.000  0.00  0.00    +0.000 A 
ATOM      8  C   UNL     1       8.927   1.146   0.000  0.00  0.00    +0.000 A 
ATOM      9  C   UNL     1       8.175   0.731   0.000  0.00  0.00    +0.000 A 
ATOM     10  C   UNL     1       8.930   1.971   0.000  0.00  0.00    +0.000 A 
ATOM     11  C   UNL     1      10.359   1.966   0.000  0.00  0.00    +0.000 A 
ATOM     12  C   UNL     1       9.646   2.381   0.000  0.00  0.00    +0.000 A 
ENDROOT
BRANCH  11  15
ATOM     13  O   UNL     1      13.217   1.955   0.000  0.00  0.00    +0.000 OA
ATOM     14  O   UNL     1      13.223   3.605   0.000  0.00  0.00    +0.000 OA
ATOM     15  C   UNL     1      11.075   2.376   0.000  0.00  0.00    +0.000 A 
ATOM     16  C   UNL     1      11.788   1.960   0.000  0.00  0.00    +0.000 A 
ATOM     17  C   UNL     1      11.078   3.201   0.000  0.00  0.00    +0.000 A 
ATOM     18  C   UNL     1      12.504   2.370   0.000  0.00  0.00    +0.000 A 
ATOM     19  C   UNL     1      11.794   3.610   0.000  0.00  0.00    +0.000 A 
ATOM     20  C   UNL     1      12.507   3.195   0.000  0.00  0.00    +0.000 A 
ENDBRANCH  11  15
BRANCH  12  21
ATOM     21  O   UNL     1       9.649   3.206   0.000  0.00  0.00    +0.000 OA
ATOM     22  C   UNL     1       8.937   3.621   0.000  0.00  0.00    +0.000 C 
ENDBRANCH  12  21
BRANCH   4  23
ATOM     23  O   UNL     1       8.907  -1.386   0.000  0.00  0.00    +0.000 OA
BRANCH  23  32
ATOM     24  O   UNL     1       7.478  -1.386   0.000  0.00  0.00    +0.000 OA
ATOM     25  O   UNL     1       6.049  -3.036   0.000  0.00  0.00    +0.000 OA
ATOM     26  O   UNL     1       7.478  -3.861   0.000  0.00  0.00    +0.000 OA
ATOM     27  O   UNL     1       8.907  -3.036   0.000  0.00  0.00    +0.000 OA
ATOM     28  C   UNL     1       6.764  -1.798   0.000  0.00  0.00    +0.000 C 
ATOM     29  C   UNL     1       6.764  -2.623   0.000  0.00  0.00    +0.000 C 
ATOM     30  C   UNL     1       7.478  -3.036   0.000  0.00  0.00    +0.000 C 
ATOM     31  C   UNL     1       8.193  -2.623   0.000  0.00  0.00    +0.000 C 
ATOM     32  C   UNL     1       8.193  -1.798   0.000  0.00  0.00    +0.000 C 
BRANCH  28  33
ATOM     33  C   UNL     1       6.049  -1.386   0.000  0.00  0.00    +0.000 C 
BRANCH  33  34
ATOM     34  O   UNL     1       5.335  -1.798   0.000  0.00  0.00    +0.000 OA
BRANCH  34  38
ATOM     35  O   UNL     1       3.867  -1.721   0.000  0.00  0.00    +0.000 OA
ATOM     36  O   UNL     1       5.147  -0.013   0.000  0.00  0.00    +0.000 OA
ATOM     37  O   UNL     1       3.392   0.360   0.000  0.00  0.00    +0.000 OA
ATOM     38  C   UNL     1       4.620  -1.386   0.000  0.00  0.00    +0.000 C 
ATOM     39  C   UNL     1       4.534  -0.565   0.000  0.00  0.00    +0.000 C 
ATOM     40  C   UNL     1       3.727  -0.394   0.000  0.00  0.00    +0.000 C 
ATOM     41  C   UNL     1       3.315  -1.108   0.000  0.00  0.00    +0.000 C 
BRANCH  41  43
ATOM     42  O   UNL     1       2.159  -1.948   0.000  0.00  0.00    +0.000 OA
ATOM     43  C   UNL     1       2.494  -1.194   0.000  0.00  0.00    +0.000 C 
ENDBRANCH  41  43
ENDBRANCH  34  38
ENDBRANCH  33  34
ENDBRANCH  28  33
ENDBRANCH  23  32
ENDBRANCH   4  23
TORSDOF 8
