REMARK  Name = 44257666
REMARK  6 active torsions:
REMARK  status: ('A' for Active; 'I' for Inactive)
REMARK    1  A    between atoms: O_1  and  C_15
REMARK    2  A    between atoms: O_1  and  C_20
REMARK    3  A    between atoms: C_17  and  C_24
REMARK    4  A    between atoms: C_19  and  C_25
REMARK    5  A    between atoms: C_23  and  C_26
REMARK    6  A    between atoms: C_33  and  C_35
REMARK                            x       y       z     vdW  Elec       q    Type
REMARK                         _______ _______ _______ _____ _____    ______ ____
ROOT
ATOM      1  O   UNL     1       6.340   0.321   0.000  0.00  0.00    +0.000 OA
ATOM      2  O   UNL     1       3.986  -0.444   0.000  0.00  0.00    +0.000 OA
ATOM      3  O   UNL     1       4.329   1.170   0.000  0.00  0.00    +0.000 OA
ATOM      4  C   UNL     1       5.383  -0.741   0.000  0.00  0.00    +0.000 C 
ATOM      5  C   UNL     1       4.771  -0.189   0.000  0.00  0.00    +0.000 C 
ATOM      6  C   UNL     1       6.168  -0.486   0.000  0.00  0.00    +0.000 C 
ATOM      7  C   UNL     1       4.942   0.618   0.000  0.00  0.00    +0.000 C 
ATOM      8  C   UNL     1       5.727   0.873   0.000  0.00  0.00    +0.000 C 
ENDROOT
BRANCH   6  13
ATOM      9  O   UNL     1       7.732   0.060   0.000  0.00  0.00    +0.000 OA
ATOM     10  O   UNL     1       5.825  -2.100   0.000  0.00  0.00    +0.000 OA
ATOM     11  O   UNL     1       8.621  -2.694   0.000  0.00  0.00    +0.000 OA
ATOM     12  O   UNL     1       9.607  -1.641   0.000  0.00  0.00    +0.000 OA
ATOM     13  C   UNL     1       6.781  -1.038   0.000  0.00  0.00    +0.000 A 
ATOM     14  C   UNL     1       7.566  -0.783   0.000  0.00  0.00    +0.000 A 
ATOM     15  C   UNL     1       6.610  -1.845   0.000  0.00  0.00    +0.000 A 
ATOM     16  C   UNL     1       8.179  -1.335   0.000  0.00  0.00    +0.000 A 
ATOM     17  C   UNL     1       7.223  -2.397   0.000  0.00  0.00    +0.000 A 
ATOM     18  C   UNL     1       8.007  -2.142   0.000  0.00  0.00    +0.000 A 
ATOM     19  C   UNL     1       9.000  -1.082   0.000  0.00  0.00    +0.000 A 
ATOM     20  C   UNL     1       8.547   0.332   0.000  0.00  0.00    +0.000 A 
ATOM     21  C   UNL     1       9.185  -0.243   0.000  0.00  0.00    +0.000 A 
BRANCH  20  23
ATOM     22  O   UNL     1       9.220   3.562   0.000  0.00  0.00    +0.000 OA
ATOM     23  C   UNL     1       8.715   1.139   0.000  0.00  0.00    +0.000 A 
ATOM     24  C   UNL     1       9.499   1.397   0.000  0.00  0.00    +0.000 A 
ATOM     25  C   UNL     1       8.100   1.689   0.000  0.00  0.00    +0.000 A 
ATOM     26  C   UNL     1       9.667   2.205   0.000  0.00  0.00    +0.000 A 
ATOM     27  C   UNL     1       8.268   2.497   0.000  0.00  0.00    +0.000 A 
ATOM     28  C   UNL     1       9.052   2.755   0.000  0.00  0.00    +0.000 A 
ENDBRANCH  20  23
ENDBRANCH   6  13
BRANCH   8  30
ATOM     29  O   UNL     1       5.285   2.232   0.000  0.00  0.00    +0.000 OA
ATOM     30  C   UNL     1       5.898   1.680   0.000  0.00  0.00    +0.000 C 
ENDBRANCH   8  30
BRANCH   4  31
ATOM     31  O   UNL     1       5.212  -1.548   0.000  0.00  0.00    +0.000 OA
BRANCH  31  35
ATOM     32  O   UNL     1       3.760  -1.318   0.000  0.00  0.00    +0.000 OA
ATOM     33  O   UNL     1       4.657  -3.255   0.000  0.00  0.00    +0.000 OA
ATOM     34  O   UNL     1       2.862  -3.255   0.000  0.00  0.00    +0.000 OA
ATOM     35  C   UNL     1       4.428  -1.803   0.000  0.00  0.00    +0.000 C 
ATOM     36  C   UNL     1       4.173  -2.588   0.000  0.00  0.00    +0.000 C 
ATOM     37  C   UNL     1       3.348  -2.588   0.000  0.00  0.00    +0.000 C 
ATOM     38  C   UNL     1       3.093  -1.803   0.000  0.00  0.00    +0.000 C 
BRANCH  38  40
ATOM     39  O   UNL     1       2.136  -0.741   0.000  0.00  0.00    +0.000 OA
ATOM     40  C   UNL     1       2.308  -1.548   0.000  0.00  0.00    +0.000 C 
ENDBRANCH  38  40
ENDBRANCH  31  35
ENDBRANCH   4  31
TORSDOF 6
