REMARK  Name = 131838980
REMARK  7 active torsions:
REMARK  status: ('A' for Active; 'I' for Inactive)
REMARK    1  A    between atoms: O_2  and  C_15
REMARK    2  A    between atoms: O_2  and  C_17
REMARK    3  A    between atoms: C_14  and  C_16
REMARK    4  A    between atoms: C_19  and  C_22
REMARK    5  A    between atoms: C_21  and  C_22
REMARK    6  A    between atoms: C_21  and  C_25
REMARK    7  A    between atoms: C_25  and  C_26
REMARK                            x       y       z     vdW  Elec       q    Type
REMARK                         _______ _______ _______ _____ _____    ______ ____
ROOT
ATOM      1  O   UNL     1       5.665   2.888   0.000  0.00  0.00    +0.000 OA
ATOM      2  C   UNL     1       5.665   0.412   0.000  0.00  0.00    +0.000 A 
ATOM      3  C   UNL     1       6.380   0.825   0.000  0.00  0.00    +0.000 A 
ATOM      4  C   UNL     1       6.380   1.650   0.000  0.00  0.00    +0.000 A 
ATOM      5  C   UNL     1       4.951   0.825   0.000  0.00  0.00    +0.000 A 
ATOM      6  C   UNL     1       5.665   2.062   0.000  0.00  0.00    +0.000 A 
ATOM      7  C   UNL     1       4.951   1.650   0.000  0.00  0.00    +0.000 A 
ENDROOT
BRANCH   4   9
ATOM      8  O   UNL     1       7.094   2.888   0.000  0.00  0.00    +0.000 OA
ATOM      9  C   UNL     1       7.094   2.062   0.000  0.00  0.00    +0.000 C 
BRANCH   9  10
ATOM     10  C   UNL     1       7.809   1.650   0.000  0.00  0.00    +0.000 C 
BRANCH  10  11
ATOM     11  C   UNL     1       8.523   2.062   0.000  0.00  0.00    +0.000 C 
BRANCH  11  13
ATOM     12  O   UNL     1       8.523   0.412   0.000  0.00  0.00    +0.000 OA
ATOM     13  C   UNL     1       9.238   1.650   0.000  0.00  0.00    +0.000 A 
ATOM     14  C   UNL     1       9.238   0.825   0.000  0.00  0.00    +0.000 A 
ATOM     15  C   UNL     1       9.952   2.062   0.000  0.00  0.00    +0.000 A 
ATOM     16  C   UNL     1       9.952   0.412   0.000  0.00  0.00    +0.000 A 
ATOM     17  C   UNL     1      10.667   1.650   0.000  0.00  0.00    +0.000 A 
ATOM     18  C   UNL     1      10.667   0.825   0.000  0.00  0.00    +0.000 A 
ENDBRANCH  11  13
ENDBRANCH  10  11
ENDBRANCH   9  10
ENDBRANCH   4   9
BRANCH   2  19
ATOM     19  O   UNL     1       5.665  -0.412   0.000  0.00  0.00    +0.000 OA
BRANCH  19  28
ATOM     20  O   UNL     1       4.237  -0.412   0.000  0.00  0.00    +0.000 OA
ATOM     21  O   UNL     1       4.237  -2.888   0.000  0.00  0.00    +0.000 OA
ATOM     22  O   UNL     1       2.808  -2.062   0.000  0.00  0.00    +0.000 OA
ATOM     23  O   UNL     1       5.665  -2.062   0.000  0.00  0.00    +0.000 OA
ATOM     24  C   UNL     1       4.237  -2.062   0.000  0.00  0.00    +0.000 C 
ATOM     25  C   UNL     1       3.522  -1.650   0.000  0.00  0.00    +0.000 C 
ATOM     26  C   UNL     1       4.951  -1.650   0.000  0.00  0.00    +0.000 C 
ATOM     27  C   UNL     1       3.522  -0.825   0.000  0.00  0.00    +0.000 C 
ATOM     28  C   UNL     1       4.951  -0.825   0.000  0.00  0.00    +0.000 C 
BRANCH  27  31
ATOM     29  O   UNL     1       2.093  -0.825   0.000  0.00  0.00    +0.000 OA
ATOM     30  O   UNL     1       2.808   0.412   0.000  0.00  0.00    +0.000 OA
ATOM     31  C   UNL     1       2.808  -0.412   0.000  0.00  0.00    +0.000 C 
ENDBRANCH  27  31
ENDBRANCH  19  28
ENDBRANCH   2  19
TORSDOF 7
