REMARK  Name = 5318156
REMARK  7 active torsions:
REMARK  status: ('A' for Active; 'I' for Inactive)
REMARK    1  A    between atoms: O_2  and  C_17
REMARK    2  A    between atoms: O_2  and  C_20
REMARK    3  A    between atoms: C_16  and  C_18
REMARK    4  A    between atoms: C_19  and  C_21
REMARK    5  A    between atoms: C_21  and  C_22
REMARK    6  A    between atoms: C_22  and  C_23
REMARK    7  A    between atoms: C_31  and  C_33
REMARK                            x       y       z     vdW  Elec       q    Type
REMARK                         _______ _______ _______ _____ _____    ______ ____
ROOT
ATOM      1  O   UNL     1       7.114   1.141   0.000  0.00  0.00    +0.000 OA
ATOM      2  O   UNL     1       4.225   1.155   0.000  0.00  0.00    +0.000 OA
ATOM      3  O   UNL     1       4.975   2.387   0.000  0.00  0.00    +0.000 OA
ATOM      4  O   UNL     1       6.407   3.206   0.000  0.00  0.00    +0.000 OA
ATOM      5  C   UNL     1       6.408  -0.128   0.000  0.00  0.00    +0.000 A 
ATOM      6  C   UNL     1       5.665  -0.561   0.000  0.00  0.00    +0.000 A 
ATOM      7  C   UNL     1       6.398   0.731   0.000  0.00  0.00    +0.000 A 
ATOM      8  C   UNL     1       4.923  -0.128   0.000  0.00  0.00    +0.000 A 
ATOM      9  C   UNL     1       5.685   1.146   0.000  0.00  0.00    +0.000 A 
ATOM     10  C   UNL     1       4.933   0.731   0.000  0.00  0.00    +0.000 A 
ATOM     11  C   UNL     1       5.688   1.971   0.000  0.00  0.00    +0.000 A 
ATOM     12  C   UNL     1       7.117   1.966   0.000  0.00  0.00    +0.000 A 
ATOM     13  C   UNL     1       6.404   2.381   0.000  0.00  0.00    +0.000 A 
ENDROOT
BRANCH  12  15
ATOM     14  O   UNL     1       9.981   3.605   0.000  0.00  0.00    +0.000 OA
ATOM     15  C   UNL     1       7.833   2.376   0.000  0.00  0.00    +0.000 A 
ATOM     16  C   UNL     1       7.836   3.201   0.000  0.00  0.00    +0.000 A 
ATOM     17  C   UNL     1       8.546   1.960   0.000  0.00  0.00    +0.000 A 
ATOM     18  C   UNL     1       8.552   3.610   0.000  0.00  0.00    +0.000 A 
ATOM     19  C   UNL     1       9.262   2.370   0.000  0.00  0.00    +0.000 A 
ATOM     20  C   UNL     1       9.265   3.195   0.000  0.00  0.00    +0.000 A 
ENDBRANCH  12  15
BRANCH   6  21
ATOM     21  O   UNL     1       5.665  -1.386   0.000  0.00  0.00    +0.000 OA
BRANCH  21  30
ATOM     22  O   UNL     1       4.236  -1.386   0.000  0.00  0.00    +0.000 OA
ATOM     23  O   UNL     1       4.236  -3.861   0.000  0.00  0.00    +0.000 OA
ATOM     24  O   UNL     1       2.808  -3.036   0.000  0.00  0.00    +0.000 OA
ATOM     25  O   UNL     1       5.665  -3.036   0.000  0.00  0.00    +0.000 OA
ATOM     26  C   UNL     1       4.236  -3.036   0.000  0.00  0.00    +0.000 C 
ATOM     27  C   UNL     1       3.522  -2.623   0.000  0.00  0.00    +0.000 C 
ATOM     28  C   UNL     1       4.951  -2.623   0.000  0.00  0.00    +0.000 C 
ATOM     29  C   UNL     1       3.522  -1.798   0.000  0.00  0.00    +0.000 C 
ATOM     30  C   UNL     1       4.951  -1.798   0.000  0.00  0.00    +0.000 C 
BRANCH  29  32
ATOM     31  O   UNL     1       2.093  -1.798   0.000  0.00  0.00    +0.000 OA
ATOM     32  C   UNL     1       2.808  -1.386   0.000  0.00  0.00    +0.000 C 
ENDBRANCH  29  32
ENDBRANCH  21  30
ENDBRANCH   6  21
BRANCH   5  33
ATOM     33  C   UNL     1       7.125  -0.535   0.000  0.00  0.00    +0.000 C 
BRANCH  33  34
ATOM     34  C   UNL     1       7.132  -1.360   0.000  0.00  0.00    +0.000 C 
BRANCH  34  36
ATOM     35  O   UNL     1       8.567  -2.174   0.000  0.00  0.00    +0.000 OA
ATOM     36  C   UNL     1       7.849  -1.767   0.000  0.00  0.00    +0.000 C 
ATOM     37  C   UNL     1       7.442  -2.485   0.000  0.00  0.00    +0.000 C 
ATOM     38  C   UNL     1       8.257  -1.049   0.000  0.00  0.00    +0.000 C 
ENDBRANCH  34  36
ENDBRANCH  33  34
ENDBRANCH   5  33
TORSDOF 7
