REMARK  Name = 44257818
REMARK  6 active torsions:
REMARK  status: ('A' for Active; 'I' for Inactive)
REMARK    1  A    between atoms: O_4  and  C_23
REMARK    2  A    between atoms: O_4  and  C_28
REMARK    3  A    between atoms: O_7  and  C_25
REMARK    4  A    between atoms: O_7  and  C_29
REMARK    5  A    between atoms: C_24  and  C_27
REMARK    6  A    between atoms: C_36  and  C_40
REMARK                            x       y       z     vdW  Elec       q    Type
REMARK                         _______ _______ _______ _____ _____    ______ ____
ROOT
ATOM      1  O   UNL     1       5.665   0.187   0.000  0.00  0.00    +0.000 OA
ATOM      2  O   UNL     1       4.218   2.688   0.000  0.00  0.00    +0.000 OA
ATOM      3  O   UNL     1       3.522   1.424   0.000  0.00  0.00    +0.000 OA
ATOM      4  C   UNL     1       6.423   2.289   0.000  0.00  0.00    +0.000 A 
ATOM      5  C   UNL     1       6.416   1.430   0.000  0.00  0.00    +0.000 A 
ATOM      6  C   UNL     1       5.678   2.719   0.000  0.00  0.00    +0.000 A 
ATOM      7  C   UNL     1       5.665   1.012   0.000  0.00  0.00    +0.000 A 
ATOM      8  C   UNL     1       4.951   1.424   0.000  0.00  0.00    +0.000 A 
ATOM      9  C   UNL     1       4.938   2.284   0.000  0.00  0.00    +0.000 A 
ATOM     10  C   UNL     1       4.951  -0.226   0.000  0.00  0.00    +0.000 A 
ATOM     11  C   UNL     1       4.236   1.012   0.000  0.00  0.00    +0.000 A 
ATOM     12  C   UNL     1       4.236   0.187   0.000  0.00  0.00    +0.000 A 
ENDROOT
BRANCH  10  16
ATOM     13  C   UNL     1       4.951  -2.701   0.000  0.00  0.00    +0.000 A 
ATOM     14  C   UNL     1       5.665  -2.288   0.000  0.00  0.00    +0.000 A 
ATOM     15  C   UNL     1       4.236  -2.288   0.000  0.00  0.00    +0.000 A 
ATOM     16  C   UNL     1       4.951  -1.051   0.000  0.00  0.00    +0.000 A 
ATOM     17  C   UNL     1       5.665  -1.463   0.000  0.00  0.00    +0.000 A 
ATOM     18  C   UNL     1       4.236  -1.463   0.000  0.00  0.00    +0.000 A 
BRANCH  13  19
ATOM     19  O   UNL     1       4.951  -3.526   0.000  0.00  0.00    +0.000 OA
BRANCH  19  28
ATOM     20  O   UNL     1       3.522  -3.526   0.000  0.00  0.00    +0.000 OA
ATOM     21  O   UNL     1       3.522  -6.001   0.000  0.00  0.00    +0.000 OA
ATOM     22  O   UNL     1       2.093  -5.176   0.000  0.00  0.00    +0.000 OA
ATOM     23  O   UNL     1       4.951  -5.176   0.000  0.00  0.00    +0.000 OA
ATOM     24  C   UNL     1       3.522  -5.176   0.000  0.00  0.00    +0.000 C 
ATOM     25  C   UNL     1       2.808  -4.763   0.000  0.00  0.00    +0.000 C 
ATOM     26  C   UNL     1       4.236  -4.763   0.000  0.00  0.00    +0.000 C 
ATOM     27  C   UNL     1       2.808  -3.938   0.000  0.00  0.00    +0.000 C 
ATOM     28  C   UNL     1       4.236  -3.938   0.000  0.00  0.00    +0.000 C 
ATOM     29  C   UNL     1       2.093  -3.526   0.000  0.00  0.00    +0.000 C 
ENDBRANCH  19  28
ENDBRANCH  13  19
ENDBRANCH  10  16
BRANCH   4  30
ATOM     30  O   UNL     1       7.139   2.699   0.000  0.00  0.00    +0.000 OA
BRANCH  30  39
ATOM     31  O   UNL     1       7.858   3.934   0.000  0.00  0.00    +0.000 OA
ATOM     32  O   UNL     1       5.719   5.179   0.000  0.00  0.00    +0.000 OA
ATOM     33  O   UNL     1       7.152   5.999   0.000  0.00  0.00    +0.000 OA
ATOM     34  O   UNL     1       5.713   3.530   0.000  0.00  0.00    +0.000 OA
ATOM     35  C   UNL     1       6.432   4.764   0.000  0.00  0.00    +0.000 C 
ATOM     36  C   UNL     1       7.148   5.174   0.000  0.00  0.00    +0.000 C 
ATOM     37  C   UNL     1       6.429   3.939   0.000  0.00  0.00    +0.000 C 
ATOM     38  C   UNL     1       7.861   4.759   0.000  0.00  0.00    +0.000 C 
ATOM     39  C   UNL     1       7.142   3.524   0.000  0.00  0.00    +0.000 C 
BRANCH  38  42
ATOM     40  O   UNL     1       9.290   4.753   0.000  0.00  0.00    +0.000 OA
ATOM     41  O   UNL     1       8.580   5.994   0.000  0.00  0.00    +0.000 OA
ATOM     42  C   UNL     1       8.577   5.168   0.000  0.00  0.00    +0.000 C 
ENDBRANCH  38  42
ENDBRANCH  30  39
ENDBRANCH   4  30
TORSDOF 6
