REMARK  Name = 5360930
REMARK  2 active torsions:
REMARK  status: ('A' for Active; 'I' for Inactive)
REMARK    1  A    between atoms: O_2  and  C_10
REMARK    2  A    between atoms: C_9  and  C_14
REMARK                            x       y       z     vdW  Elec       q    Type
REMARK                         _______ _______ _______ _____ _____    ______ ____
ROOT
ATOM      1  O   UNL     1       5.006  -0.763   0.000  0.00  0.00    +0.000 OA
ATOM      2  O   UNL     1       3.564   1.740   0.000  0.00  0.00    +0.000 OA
ATOM      3  O   UNL     1       3.564  -1.617   0.000  0.00  0.00    +0.000 OA
ATOM      4  O   UNL     1       5.006   1.712   0.000  0.00  0.00    +0.000 OA
ATOM      5  O   UNL     1       2.094  -0.783   0.000  0.00  0.00    +0.000 OA
ATOM      6  C   UNL     1       4.292   0.474   0.000  0.00  0.00    +0.000 A 
ATOM      7  C   UNL     1       4.292  -0.351   0.000  0.00  0.00    +0.000 A 
ATOM      8  C   UNL     1       5.721  -0.351   0.000  0.00  0.00    +0.000 A 
ATOM      9  C   UNL     1       5.721   0.474   0.000  0.00  0.00    +0.000 A 
ATOM     10  C   UNL     1       5.006   0.886   0.000  0.00  0.00    +0.000 A 
ATOM     11  C   UNL     1       3.554   0.915   0.000  0.00  0.00    +0.000 A 
ATOM     12  C   UNL     1       3.554  -0.792   0.000  0.00  0.00    +0.000 A 
ATOM     13  C   UNL     1       2.807  -0.368   0.000  0.00  0.00    +0.000 A 
ATOM     14  C   UNL     1       2.807   0.491   0.000  0.00  0.00    +0.000 A 
ENDROOT
BRANCH   8  15
ATOM     15  C   UNL     1       6.435  -0.763   0.000  0.00  0.00    +0.000 A 
ATOM     16  C   UNL     1       6.435  -1.589   0.000  0.00  0.00    +0.000 A 
ATOM     17  C   UNL     1       7.150  -0.351   0.000  0.00  0.00    +0.000 A 
ATOM     18  C   UNL     1       7.150  -2.001   0.000  0.00  0.00    +0.000 A 
ATOM     19  C   UNL     1       7.864  -0.763   0.000  0.00  0.00    +0.000 A 
ATOM     20  C   UNL     1       7.864  -1.589   0.000  0.00  0.00    +0.000 A 
ENDBRANCH   8  15
BRANCH   9  21
ATOM     21  O   UNL     1       6.435   0.886   0.000  0.00  0.00    +0.000 OA
ATOM     22  C   UNL     1       6.435   1.712   0.000  0.00  0.00    +0.000 C 
ENDBRANCH   9  21
TORSDOF 2
