REMARK  Name = 13963762
REMARK  6 active torsions:
REMARK  status: ('A' for Active; 'I' for Inactive)
REMARK    1  A    between atoms: O_2  and  C_15
REMARK    2  A    between atoms: O_2  and  C_17
REMARK    3  A    between atoms: O_8  and  C_24
REMARK    4  A    between atoms: O_10  and  C_26
REMARK    5  A    between atoms: C_14  and  C_16
REMARK    6  A    between atoms: C_19  and  C_25
REMARK                            x       y       z     vdW  Elec       q    Type
REMARK                         _______ _______ _______ _____ _____    ______ ____
ROOT
ATOM      1  O   UNL     1       7.117   2.001   0.000  0.00  0.00    +0.000 OA
ATOM      2  O   UNL     1       7.108  -0.531   0.000  0.00  0.00    +0.000 OA
ATOM      3  C   UNL     1       5.665   0.323   0.000  0.00  0.00    +0.000 A 
ATOM      4  C   UNL     1       6.380   0.735   0.000  0.00  0.00    +0.000 A 
ATOM      5  C   UNL     1       7.865   1.577   0.000  0.00  0.00    +0.000 C 
ATOM      6  C   UNL     1       7.865   0.718   0.000  0.00  0.00    +0.000 C 
ATOM      7  C   UNL     1       6.380   1.560   0.000  0.00  0.00    +0.000 A 
ATOM      8  C   UNL     1       7.117   0.294   0.000  0.00  0.00    +0.000 C 
ATOM      9  C   UNL     1       4.951   0.735   0.000  0.00  0.00    +0.000 A 
ATOM     10  C   UNL     1       5.665   1.973   0.000  0.00  0.00    +0.000 A 
ATOM     11  C   UNL     1       4.951   1.560   0.000  0.00  0.00    +0.000 A 
ENDROOT
BRANCH   5  12
ATOM     12  C   UNL     1       8.578   1.993   0.000  0.00  0.00    +0.000 A 
ATOM     13  C   UNL     1       8.575   2.818   0.000  0.00  0.00    +0.000 A 
ATOM     14  C   UNL     1       9.294   1.583   0.000  0.00  0.00    +0.000 A 
ATOM     15  C   UNL     1       9.287   3.233   0.000  0.00  0.00    +0.000 A 
ATOM     16  C   UNL     1      10.007   1.998   0.000  0.00  0.00    +0.000 A 
ATOM     17  C   UNL     1      10.004   2.823   0.000  0.00  0.00    +0.000 A 
ENDBRANCH   5  12
BRANCH  10  18
ATOM     18  O   UNL     1       5.665   2.798   0.000  0.00  0.00    +0.000 OA
ATOM     19  C   UNL     1       4.951   3.210   0.000  0.00  0.00    +0.000 C 
ENDBRANCH  10  18
BRANCH  11  20
ATOM     20  O   UNL     1       4.236   1.973   0.000  0.00  0.00    +0.000 OA
ATOM     21  C   UNL     1       3.522   1.560   0.000  0.00  0.00    +0.000 C 
ENDBRANCH  11  20
BRANCH   3  22
ATOM     22  O   UNL     1       5.665  -0.502   0.000  0.00  0.00    +0.000 OA
BRANCH  22  31
ATOM     23  O   UNL     1       4.236  -0.502   0.000  0.00  0.00    +0.000 OA
ATOM     24  O   UNL     1       4.236  -2.977   0.000  0.00  0.00    +0.000 OA
ATOM     25  O   UNL     1       2.808  -2.152   0.000  0.00  0.00    +0.000 OA
ATOM     26  O   UNL     1       5.665  -2.152   0.000  0.00  0.00    +0.000 OA
ATOM     27  C   UNL     1       4.236  -2.152   0.000  0.00  0.00    +0.000 C 
ATOM     28  C   UNL     1       3.522  -1.740   0.000  0.00  0.00    +0.000 C 
ATOM     29  C   UNL     1       4.951  -1.740   0.000  0.00  0.00    +0.000 C 
ATOM     30  C   UNL     1       3.522  -0.915   0.000  0.00  0.00    +0.000 C 
ATOM     31  C   UNL     1       4.951  -0.915   0.000  0.00  0.00    +0.000 C 
BRANCH  30  33
ATOM     32  O   UNL     1       2.093  -0.915   0.000  0.00  0.00    +0.000 OA
ATOM     33  C   UNL     1       2.808  -0.502   0.000  0.00  0.00    +0.000 C 
ENDBRANCH  30  33
ENDBRANCH  22  31
ENDBRANCH   3  22
TORSDOF 6
