REMARK  Name = 44257960
REMARK  5 active torsions:
REMARK  status: ('A' for Active; 'I' for Inactive)
REMARK    1  A    between atoms: O_1  and  C_17
REMARK    2  A    between atoms: O_1  and  C_22
REMARK    3  A    between atoms: C_19  and  C_27
REMARK    4  A    between atoms: C_21  and  C_28
REMARK    5  A    between atoms: C_36  and  C_38
REMARK                            x       y       z     vdW  Elec       q    Type
REMARK                         _______ _______ _______ _____ _____    ______ ____
ROOT
ATOM      1  O   UNL     1       7.116   0.413   0.000  0.00  0.00    +0.000 OA
ATOM      2  O   UNL     1       5.672  -2.116   0.000  0.00  0.00    +0.000 OA
ATOM      3  O   UNL     1       8.592  -2.071   0.000  0.00  0.00    +0.000 OA
ATOM      4  O   UNL     1       9.274  -0.800   0.000  0.00  0.00    +0.000 OA
ATOM      5  O   UNL     1       9.255   0.850   0.000  0.00  0.00    +0.000 OA
ATOM      6  C   UNL     1       6.380  -0.839   0.000  0.00  0.00    +0.000 A 
ATOM      7  C   UNL     1       7.126  -0.412   0.000  0.00  0.00    +0.000 A 
ATOM      8  C   UNL     1       6.383  -1.698   0.000  0.00  0.00    +0.000 A 
ATOM      9  C   UNL     1       7.845  -0.816   0.000  0.00  0.00    +0.000 A 
ATOM     10  C   UNL     1       7.132  -2.119   0.000  0.00  0.00    +0.000 A 
ATOM     11  C   UNL     1       7.868  -1.675   0.000  0.00  0.00    +0.000 A 
ATOM     12  C   UNL     1       8.555  -0.395   0.000  0.00  0.00    +0.000 A 
ATOM     13  C   UNL     1       7.826   0.834   0.000  0.00  0.00    +0.000 A 
ATOM     14  C   UNL     1       8.545   0.430   0.000  0.00  0.00    +0.000 A 
ENDROOT
BRANCH   6  20
ATOM     15  O   UNL     1       5.665   0.399   0.000  0.00  0.00    +0.000 OA
ATOM     16  O   UNL     1       3.522  -0.839   0.000  0.00  0.00    +0.000 OA
ATOM     17  O   UNL     1       3.522   0.811   0.000  0.00  0.00    +0.000 OA
ATOM     18  C   UNL     1       4.951  -0.839   0.000  0.00  0.00    +0.000 C 
ATOM     19  C   UNL     1       4.236  -0.426   0.000  0.00  0.00    +0.000 C 
ATOM     20  C   UNL     1       5.665  -0.426   0.000  0.00  0.00    +0.000 C 
ATOM     21  C   UNL     1       4.236   0.399   0.000  0.00  0.00    +0.000 C 
ATOM     22  C   UNL     1       4.951   0.811   0.000  0.00  0.00    +0.000 C 
BRANCH  22  24
ATOM     23  O   UNL     1       4.236   2.049   0.000  0.00  0.00    +0.000 OA
ATOM     24  C   UNL     1       4.951   1.636   0.000  0.00  0.00    +0.000 C 
ENDBRANCH  22  24
BRANCH  18  25
ATOM     25  O   UNL     1       4.951  -1.664   0.000  0.00  0.00    +0.000 OA
BRANCH  25  30
ATOM     26  O   UNL     1       3.522  -1.664   0.000  0.00  0.00    +0.000 OA
ATOM     27  O   UNL     1       4.951  -3.314   0.000  0.00  0.00    +0.000 OA
ATOM     28  O   UNL     1       3.522  -4.139   0.000  0.00  0.00    +0.000 OA
ATOM     29  O   UNL     1       2.093  -3.314   0.000  0.00  0.00    +0.000 OA
ATOM     30  C   UNL     1       4.236  -2.076   0.000  0.00  0.00    +0.000 C 
ATOM     31  C   UNL     1       4.236  -2.901   0.000  0.00  0.00    +0.000 C 
ATOM     32  C   UNL     1       3.522  -3.314   0.000  0.00  0.00    +0.000 C 
ATOM     33  C   UNL     1       2.808  -2.901   0.000  0.00  0.00    +0.000 C 
ATOM     34  C   UNL     1       2.808  -2.076   0.000  0.00  0.00    +0.000 C 
ATOM     35  C   UNL     1       2.093  -1.664   0.000  0.00  0.00    +0.000 C 
ENDBRANCH  25  30
ENDBRANCH  18  25
ENDBRANCH   6  20
BRANCH  13  38
ATOM     36  O   UNL     1       6.368   3.292   0.000  0.00  0.00    +0.000 OA
ATOM     37  O   UNL     1       7.788   4.134   0.000  0.00  0.00    +0.000 OA
ATOM     38  C   UNL     1       7.816   1.659   0.000  0.00  0.00    +0.000 A 
ATOM     39  C   UNL     1       7.097   2.063   0.000  0.00  0.00    +0.000 A 
ATOM     40  C   UNL     1       8.526   2.079   0.000  0.00  0.00    +0.000 A 
ATOM     41  C   UNL     1       7.088   2.888   0.000  0.00  0.00    +0.000 A 
ATOM     42  C   UNL     1       8.516   2.904   0.000  0.00  0.00    +0.000 A 
ATOM     43  C   UNL     1       7.797   3.309   0.000  0.00  0.00    +0.000 A 
ENDBRANCH  13  38
TORSDOF 5
