REMARK  Name = 44258945
REMARK  9 active torsions:
REMARK  status: ('A' for Active; 'I' for Inactive)
REMARK    1  A    between atoms: O_1  and  C_19
REMARK    2  A    between atoms: O_1  and  C_23
REMARK    3  A    between atoms: O_4  and  C_25
REMARK    4  A    between atoms: O_4  and  C_34
REMARK    5  A    between atoms: O_11  and  C_33
REMARK    6  A    between atoms: O_11  and  C_39
REMARK    7  A    between atoms: C_20  and  C_27
REMARK    8  A    between atoms: C_24  and  C_28
REMARK    9  A    between atoms: C_36  and  C_43
REMARK                            x       y       z     vdW  Elec       q    Type
REMARK                         _______ _______ _______ _____ _____    ______ ____
ROOT
ATOM      1  O   UNL     1       6.399  -1.293   0.000  0.00  0.00    +0.000 OA
ATOM      2  O   UNL     1       4.261  -0.047   0.000  0.00  0.00    +0.000 OA
ATOM      3  O   UNL     1       3.510  -1.279   0.000  0.00  0.00    +0.000 OA
ATOM      4  C   UNL     1       5.690  -0.053   0.000  0.00  0.00    +0.000 A 
ATOM      5  C   UNL     1       6.403  -0.468   0.000  0.00  0.00    +0.000 A 
ATOM      6  C   UNL     1       4.974  -0.463   0.000  0.00  0.00    +0.000 A 
ATOM      7  C   UNL     1       4.971  -1.288   0.000  0.00  0.00    +0.000 A 
ATOM      8  C   UNL     1       4.951  -2.995   0.000  0.00  0.00    +0.000 A 
ATOM      9  C   UNL     1       5.684  -1.703   0.000  0.00  0.00    +0.000 A 
ATOM     10  C   UNL     1       5.693  -2.562   0.000  0.00  0.00    +0.000 A 
ATOM     11  C   UNL     1       4.218  -1.703   0.000  0.00  0.00    +0.000 A 
ATOM     12  C   UNL     1       4.208  -2.562   0.000  0.00  0.00    +0.000 A 
ENDROOT
BRANCH   5  14
ATOM     13  O   UNL     1       9.267   1.171   0.000  0.00  0.00    +0.000 OA
ATOM     14  C   UNL     1       7.119  -0.058   0.000  0.00  0.00    +0.000 A 
ATOM     15  C   UNL     1       7.122   0.767   0.000  0.00  0.00    +0.000 A 
ATOM     16  C   UNL     1       7.832  -0.474   0.000  0.00  0.00    +0.000 A 
ATOM     17  C   UNL     1       7.838   1.176   0.000  0.00  0.00    +0.000 A 
ATOM     18  C   UNL     1       8.548  -0.064   0.000  0.00  0.00    +0.000 A 
ATOM     19  C   UNL     1       8.551   0.761   0.000  0.00  0.00    +0.000 A 
ENDBRANCH   5  14
BRANCH   4  20
ATOM     20  O   UNL     1       5.693   0.772   0.000  0.00  0.00    +0.000 OA
BRANCH  20  26
ATOM     21  O   UNL     1       4.225   0.855   0.000  0.00  0.00    +0.000 OA
ATOM     22  O   UNL     1       3.758   2.938   0.000  0.00  0.00    +0.000 OA
ATOM     23  C   UNL     1       4.897   2.008   0.000  0.00  0.00    +0.000 C 
ATOM     24  C   UNL     1       4.091   2.183   0.000  0.00  0.00    +0.000 C 
ATOM     25  C   UNL     1       3.675   1.470   0.000  0.00  0.00    +0.000 C 
ATOM     26  C   UNL     1       4.980   1.187   0.000  0.00  0.00    +0.000 C 
BRANCH  25  28
ATOM     27  O   UNL     1       2.516   0.634   0.000  0.00  0.00    +0.000 OA
ATOM     28  C   UNL     1       2.855   1.387   0.000  0.00  0.00    +0.000 C 
ENDBRANCH  25  28
BRANCH  23  29
ATOM     29  O   UNL     1       5.512   2.558   0.000  0.00  0.00    +0.000 OA
BRANCH  29  35
ATOM     30  O   UNL     1       4.591   3.704   0.000  0.00  0.00    +0.000 OA
ATOM     31  O   UNL     1       6.205   5.102   0.000  0.00  0.00    +0.000 OA
ATOM     32  O   UNL     1       6.718   3.887   0.000  0.00  0.00    +0.000 OA
ATOM     33  C   UNL     1       5.489   4.692   0.000  0.00  0.00    +0.000 C 
ATOM     34  C   UNL     1       5.898   3.976   0.000  0.00  0.00    +0.000 C 
ATOM     35  C   UNL     1       5.344   3.365   0.000  0.00  0.00    +0.000 C 
ATOM     36  C   UNL     1       4.681   4.524   0.000  0.00  0.00    +0.000 C 
BRANCH  33  38
ATOM     37  O   UNL     1       5.935   6.050   0.000  0.00  0.00    +0.000 OA
ATOM     38  C   UNL     1       5.320   5.500   0.000  0.00  0.00    +0.000 C 
ENDBRANCH  33  38
ENDBRANCH  29  35
ENDBRANCH  23  29
ENDBRANCH  20  26
ENDBRANCH   4  20
BRANCH   8  39
ATOM     39  O   UNL     1       4.951  -3.820   0.000  0.00  0.00    +0.000 OA
BRANCH  39  48
ATOM     40  O   UNL     1       3.522  -3.820   0.000  0.00  0.00    +0.000 OA
ATOM     41  O   UNL     1       3.522  -6.295   0.000  0.00  0.00    +0.000 OA
ATOM     42  O   UNL     1       2.093  -5.470   0.000  0.00  0.00    +0.000 OA
ATOM     43  O   UNL     1       4.951  -5.470   0.000  0.00  0.00    +0.000 OA
ATOM     44  C   UNL     1       3.522  -5.470   0.000  0.00  0.00    +0.000 C 
ATOM     45  C   UNL     1       2.808  -5.057   0.000  0.00  0.00    +0.000 C 
ATOM     46  C   UNL     1       4.236  -5.057   0.000  0.00  0.00    +0.000 C 
ATOM     47  C   UNL     1       2.808  -4.232   0.000  0.00  0.00    +0.000 C 
ATOM     48  C   UNL     1       4.236  -4.232   0.000  0.00  0.00    +0.000 C 
ATOM     49  C   UNL     1       2.093  -3.820   0.000  0.00  0.00    +0.000 C 
ENDBRANCH  39  48
ENDBRANCH   8  39
TORSDOF 9
