REMARK  Name = 44258137
REMARK  6 active torsions:
REMARK  status: ('A' for Active; 'I' for Inactive)
REMARK    1  A    between atoms: O_1  and  C_16
REMARK    2  A    between atoms: O_1  and  C_21
REMARK    3  A    between atoms: O_5  and  C_20
REMARK    4  A    between atoms: O_5  and  C_27
REMARK    5  A    between atoms: C_19  and  C_25
REMARK    6  A    between atoms: C_30  and  C_33
REMARK                            x       y       z     vdW  Elec       q    Type
REMARK                         _______ _______ _______ _____ _____    ______ ____
ROOT
ATOM      1  O   UNL     1       6.414  -1.679   0.000  0.00  0.00    +0.000 OA
ENDROOT
BRANCH   1   9
ATOM      2  O   UNL     1       4.985  -1.679   0.000  0.00  0.00    +0.000 OA
ATOM      3  O   UNL     1       4.985  -4.154   0.000  0.00  0.00    +0.000 OA
ATOM      4  O   UNL     1       3.556  -3.329   0.000  0.00  0.00    +0.000 OA
ATOM      5  C   UNL     1       5.700  -2.917   0.000  0.00  0.00    +0.000 C 
ATOM      6  C   UNL     1       4.985  -3.329   0.000  0.00  0.00    +0.000 C 
ATOM      7  C   UNL     1       4.271  -2.917   0.000  0.00  0.00    +0.000 C 
ATOM      8  C   UNL     1       4.271  -2.092   0.000  0.00  0.00    +0.000 C 
ATOM      9  C   UNL     1       5.700  -2.092   0.000  0.00  0.00    +0.000 C 
BRANCH   8  11
ATOM     10  O   UNL     1       2.842  -2.092   0.000  0.00  0.00    +0.000 OA
ATOM     11  C   UNL     1       3.556  -1.679   0.000  0.00  0.00    +0.000 C 
ENDBRANCH   8  11
BRANCH   5  12
ATOM     12  O   UNL     1       6.414  -3.329   0.000  0.00  0.00    +0.000 OA
BRANCH  12  17
ATOM     13  O   UNL     1       7.129  -2.092   0.000  0.00  0.00    +0.000 OA
ATOM     14  O   UNL     1       7.843  -4.154   0.000  0.00  0.00    +0.000 OA
ATOM     15  O   UNL     1       9.272  -3.329   0.000  0.00  0.00    +0.000 OA
ATOM     16  O   UNL     1       9.272  -1.679   0.000  0.00  0.00    +0.000 OA
ATOM     17  C   UNL     1       7.129  -2.917   0.000  0.00  0.00    +0.000 C 
ATOM     18  C   UNL     1       7.843  -3.329   0.000  0.00  0.00    +0.000 C 
ATOM     19  C   UNL     1       8.558  -2.917   0.000  0.00  0.00    +0.000 C 
ATOM     20  C   UNL     1       8.558  -2.092   0.000  0.00  0.00    +0.000 C 
ATOM     21  C   UNL     1       7.843  -1.679   0.000  0.00  0.00    +0.000 C 
ENDBRANCH  12  17
ENDBRANCH   5  12
ENDBRANCH   1   9
BRANCH   1  23
ATOM     22  O   UNL     1       7.843  -0.855   0.000  0.00  0.00    +0.000 OA
ATOM     23  C   UNL     1       6.414  -0.855   0.000  0.00  0.00    +0.000 A 
ATOM     24  C   UNL     1       5.700  -0.442   0.000  0.00  0.00    +0.000 A 
ATOM     25  C   UNL     1       7.129  -0.442   0.000  0.00  0.00    +0.000 A 
ATOM     26  C   UNL     1       5.700   0.383   0.000  0.00  0.00    +0.000 A 
ATOM     27  C   UNL     1       7.129   0.383   0.000  0.00  0.00    +0.000 A 
ATOM     28  C   UNL     1       6.414   0.795   0.000  0.00  0.00    +0.000 A 
BRANCH  26  33
ATOM     29  O   UNL     1       4.985   1.621   0.000  0.00  0.00    +0.000 OA
ATOM     30  O   UNL     1       2.842   0.383   0.000  0.00  0.00    +0.000 OA
ATOM     31  O   UNL     1       2.096   1.618   0.000  0.00  0.00    +0.000 OA
ATOM     32  O   UNL     1       3.546   4.153   0.000  0.00  0.00    +0.000 OA
ATOM     33  C   UNL     1       4.985   0.795   0.000  0.00  0.00    +0.000 A 
ATOM     34  C   UNL     1       4.271   0.383   0.000  0.00  0.00    +0.000 A 
ATOM     35  C   UNL     1       4.271   2.033   0.000  0.00  0.00    +0.000 A 
ATOM     36  C   UNL     1       3.556   1.621   0.000  0.00  0.00    +0.000 A 
ATOM     37  C   UNL     1       3.556   0.795   0.000  0.00  0.00    +0.000 A 
ATOM     38  C   UNL     1       4.284   2.892   0.000  0.00  0.00    +0.000 A 
ATOM     39  C   UNL     1       2.806   2.039   0.000  0.00  0.00    +0.000 A 
ATOM     40  C   UNL     1       3.543   3.328   0.000  0.00  0.00    +0.000 A 
ATOM     41  C   UNL     1       2.799   2.898   0.000  0.00  0.00    +0.000 A 
ENDBRANCH  26  33
ENDBRANCH   1  23
TORSDOF 6
