REMARK  Name = 44259072
REMARK  13 active torsions:
REMARK  status: ('A' for Active; 'I' for Inactive)
REMARK    1  A    between atoms: O_1  and  C_18
REMARK    2  A    between atoms: O_1  and  C_21
REMARK    3  A    between atoms: O_4  and  C_19
REMARK    4  A    between atoms: O_4  and  C_31
REMARK    5  A    between atoms: O_6  and  C_26
REMARK    6  A    between atoms: O_6  and  C_30
REMARK    7  A    between atoms: O_10  and  C_29
REMARK    8  A    between atoms: O_10  and  C_36
REMARK    9  A    between atoms: O_17  and  C_50
REMARK   10  A    between atoms: C_27  and  C_29
REMARK   11  A    between atoms: C_32  and  C_38
REMARK   12  A    between atoms: C_39  and  C_46
REMARK   13  A    between atoms: C_46  and  C_49
REMARK                            x       y       z     vdW  Elec       q    Type
REMARK                         _______ _______ _______ _____ _____    ______ ____
ROOT
ATOM      1  O   UNL     1       8.080  -0.293   0.000  0.00  0.00    +0.000 OA
ENDROOT
BRANCH   1   6
ATOM      2  O   UNL     1       8.795   1.769   0.000  0.00  0.00    +0.000 OA
ATOM      3  O   UNL     1       6.651   0.532   0.000  0.00  0.00    +0.000 OA
ATOM      4  O   UNL     1       5.905   1.766   0.000  0.00  0.00    +0.000 OA
ATOM      5  O   UNL     1       7.356   4.301   0.000  0.00  0.00    +0.000 OA
ATOM      6  C   UNL     1       8.080   0.532   0.000  0.00  0.00    +0.000 A 
ATOM      7  C   UNL     1       8.795   0.944   0.000  0.00  0.00    +0.000 A 
ATOM      8  C   UNL     1       7.366   0.944   0.000  0.00  0.00    +0.000 A 
ATOM      9  C   UNL     1       7.366   1.769   0.000  0.00  0.00    +0.000 A 
ATOM     10  C   UNL     1       8.080   2.182   0.000  0.00  0.00    +0.000 A 
ATOM     11  C   UNL     1       8.094   3.041   0.000  0.00  0.00    +0.000 A 
ATOM     12  C   UNL     1       6.615   2.187   0.000  0.00  0.00    +0.000 A 
ATOM     13  C   UNL     1       7.353   3.476   0.000  0.00  0.00    +0.000 A 
ATOM     14  C   UNL     1       6.608   3.047   0.000  0.00  0.00    +0.000 A 
BRANCH   7  15
ATOM     15  C   UNL     1       9.509   0.532   0.000  0.00  0.00    +0.000 A 
ATOM     16  C   UNL     1       9.509  -0.293   0.000  0.00  0.00    +0.000 A 
ATOM     17  C   UNL     1      10.224   0.944   0.000  0.00  0.00    +0.000 A 
ATOM     18  C   UNL     1      10.224  -0.706   0.000  0.00  0.00    +0.000 A 
ATOM     19  C   UNL     1      10.938   0.532   0.000  0.00  0.00    +0.000 A 
ATOM     20  C   UNL     1      10.938  -0.293   0.000  0.00  0.00    +0.000 A 
BRANCH  20  21
ATOM     21  O   UNL     1      11.653  -0.706   0.000  0.00  0.00    +0.000 OA
ATOM     22  C   UNL     1      12.367  -0.293   0.000  0.00  0.00    +0.000 C 
ENDBRANCH  20  21
ENDBRANCH   7  15
BRANCH  11  23
ATOM     23  C   UNL     1       8.813   3.445   0.000  0.00  0.00    +0.000 C 
BRANCH  23  24
ATOM     24  C   UNL     1       8.822   4.270   0.000  0.00  0.00    +0.000 C 
ATOM     25  C   UNL     1       9.541   4.674   0.000  0.00  0.00    +0.000 C 
ATOM     26  C   UNL     1       9.551   5.499   0.000  0.00  0.00    +0.000 C 
ATOM     27  C   UNL     1      10.251   4.253   0.000  0.00  0.00    +0.000 C 
ENDBRANCH  23  24
ENDBRANCH  11  23
ENDBRANCH   1   6
BRANCH   1  34
ATOM     28  O   UNL     1       6.651  -0.293   0.000  0.00  0.00    +0.000 OA
ATOM     29  O   UNL     1       8.080  -1.943   0.000  0.00  0.00    +0.000 OA
ATOM     30  C   UNL     1       6.651  -1.943   0.000  0.00  0.00    +0.000 C 
ATOM     31  C   UNL     1       5.937  -1.531   0.000  0.00  0.00    +0.000 C 
ATOM     32  C   UNL     1       7.366  -1.531   0.000  0.00  0.00    +0.000 C 
ATOM     33  C   UNL     1       5.937  -0.706   0.000  0.00  0.00    +0.000 C 
ATOM     34  C   UNL     1       7.366  -0.706   0.000  0.00  0.00    +0.000 C 
ATOM     35  C   UNL     1       5.222  -0.293   0.000  0.00  0.00    +0.000 C 
BRANCH  30  36
ATOM     36  O   UNL     1       6.651  -2.768   0.000  0.00  0.00    +0.000 OA
BRANCH  36  41
ATOM     37  O   UNL     1       5.222  -2.768   0.000  0.00  0.00    +0.000 OA
ATOM     38  O   UNL     1       6.651  -4.418   0.000  0.00  0.00    +0.000 OA
ATOM     39  O   UNL     1       5.222  -5.243   0.000  0.00  0.00    +0.000 OA
ATOM     40  O   UNL     1       3.793  -4.418   0.000  0.00  0.00    +0.000 OA
ATOM     41  C   UNL     1       5.937  -3.181   0.000  0.00  0.00    +0.000 C 
ATOM     42  C   UNL     1       5.937  -4.006   0.000  0.00  0.00    +0.000 C 
ATOM     43  C   UNL     1       5.222  -4.418   0.000  0.00  0.00    +0.000 C 
ATOM     44  C   UNL     1       4.508  -4.006   0.000  0.00  0.00    +0.000 C 
ATOM     45  C   UNL     1       4.508  -3.181   0.000  0.00  0.00    +0.000 C 
BRANCH  45  46
ATOM     46  C   UNL     1       3.793  -2.768   0.000  0.00  0.00    +0.000 C 
BRANCH  46  47
ATOM     47  O   UNL     1       3.079  -3.181   0.000  0.00  0.00    +0.000 OA
BRANCH  47  49
ATOM     48  O   UNL     1       2.365  -1.943   0.000  0.00  0.00    +0.000 OA
ATOM     49  C   UNL     1       2.365  -2.768   0.000  0.00  0.00    +0.000 C 
ATOM     50  C   UNL     1       1.650  -3.181   0.000  0.00  0.00    +0.000 C 
ENDBRANCH  47  49
ENDBRANCH  46  47
ENDBRANCH  45  46
ENDBRANCH  36  41
ENDBRANCH  30  36
BRANCH  31  51
ATOM     51  O   UNL     1       5.222  -1.943   0.000  0.00  0.00    +0.000 OA
BRANCH  51  53
ATOM     52  O   UNL     1       4.508  -0.706   0.000  0.00  0.00    +0.000 OA
ATOM     53  C   UNL     1       4.508  -1.531   0.000  0.00  0.00    +0.000 C 
ATOM     54  C   UNL     1       3.793  -1.943   0.000  0.00  0.00    +0.000 C 
ENDBRANCH  51  53
ENDBRANCH  31  51
ENDBRANCH   1  34
TORSDOF 13
