REMARK  Name = 503268
REMARK  3 active torsions:
REMARK  status: ('A' for Active; 'I' for Inactive)
REMARK    1  A    between atoms: O_2  and  C_12
REMARK    2  A    between atoms: C_6  and  C_11
REMARK    3  A    between atoms: C_13  and  C_19
REMARK                            x       y       z     vdW  Elec       q    Type
REMARK                         _______ _______ _______ _____ _____    ______ ____
ROOT
ATOM      1  O   UNL     1       4.974  -0.842   0.000  0.00  0.00    +0.000 OA
ATOM      2  O   UNL     1       4.964   1.690   0.000  0.00  0.00    +0.000 OA
ATOM      3  O   UNL     1       2.093  -0.814   0.000  0.00  0.00    +0.000 OA
ATOM      4  C   UNL     1       5.721  -0.418   0.000  0.00  0.00    +0.000 C 
ATOM      5  C   UNL     1       5.721   0.441   0.000  0.00  0.00    +0.000 C 
ATOM      6  C   UNL     1       4.236   0.424   0.000  0.00  0.00    +0.000 A 
ATOM      7  C   UNL     1       4.236  -0.401   0.000  0.00  0.00    +0.000 A 
ATOM      8  C   UNL     1       4.974   0.865   0.000  0.00  0.00    +0.000 C 
ATOM      9  C   UNL     1       3.522   0.836   0.000  0.00  0.00    +0.000 A 
ATOM     10  C   UNL     1       3.522  -0.814   0.000  0.00  0.00    +0.000 A 
ATOM     11  C   UNL     1       2.808   0.424   0.000  0.00  0.00    +0.000 A 
ATOM     12  C   UNL     1       2.808  -0.401   0.000  0.00  0.00    +0.000 A 
ATOM     13  C   UNL     1       2.093   0.836   0.000  0.00  0.00    +0.000 C 
ENDROOT
BRANCH   4  14
ATOM     14  C   UNL     1       6.434  -0.834   0.000  0.00  0.00    +0.000 A 
ATOM     15  C   UNL     1       6.431  -1.659   0.000  0.00  0.00    +0.000 A 
ATOM     16  C   UNL     1       7.150  -0.424   0.000  0.00  0.00    +0.000 A 
ATOM     17  C   UNL     1       7.144  -2.074   0.000  0.00  0.00    +0.000 A 
ATOM     18  C   UNL     1       7.863  -0.839   0.000  0.00  0.00    +0.000 A 
ATOM     19  C   UNL     1       7.860  -1.664   0.000  0.00  0.00    +0.000 A 
ENDBRANCH   4  14
BRANCH   9  20
ATOM     20  O   UNL     1       3.522   1.661   0.000  0.00  0.00    +0.000 OA
ATOM     21  C   UNL     1       2.808   2.074   0.000  0.00  0.00    +0.000 C 
ENDBRANCH   9  20
BRANCH  10  23
ATOM     22  O   UNL     1       2.808  -2.051   0.000  0.00  0.00    +0.000 OA
ATOM     23  C   UNL     1       3.522  -1.639   0.000  0.00  0.00    +0.000 C 
ENDBRANCH  10  23
TORSDOF 3
