REMARK  Name = 44259762
REMARK  7 active torsions:
REMARK  status: ('A' for Active; 'I' for Inactive)
REMARK    1  A    between atoms: O_2  and  C_16
REMARK    2  A    between atoms: O_2  and  C_18
REMARK    3  A    between atoms: O_6  and  C_19
REMARK    4  A    between atoms: O_8  and  C_20
REMARK    5  A    between atoms: O_9  and  C_26
REMARK    6  A    between atoms: O_11  and  C_34
REMARK    7  A    between atoms: C_25  and  C_27
REMARK                            x       y       z     vdW  Elec       q    Type
REMARK                         _______ _______ _______ _____ _____    ______ ____
ROOT
ATOM      1  O   UNL     1       4.974   0.981   0.000  0.00  0.00    +0.000 OA
ATOM      2  O   UNL     1       7.112  -0.264   0.000  0.00  0.00    +0.000 OA
ATOM      3  C   UNL     1       4.951  -1.551   0.000  0.00  0.00    +0.000 A 
ATOM      4  C   UNL     1       5.693  -1.118   0.000  0.00  0.00    +0.000 A 
ATOM      5  C   UNL     1       4.208  -1.118   0.000  0.00  0.00    +0.000 A 
ATOM      6  C   UNL     1       5.684  -0.259   0.000  0.00  0.00    +0.000 A 
ATOM      7  C   UNL     1       4.971   0.156   0.000  0.00  0.00    +0.000 A 
ATOM      8  C   UNL     1       4.218  -0.259   0.000  0.00  0.00    +0.000 A 
ATOM      9  C   UNL     1       6.399   0.151   0.000  0.00  0.00    +0.000 A 
ATOM     10  C   UNL     1       5.690   1.391   0.000  0.00  0.00    +0.000 A 
ATOM     11  C   UNL     1       6.403   0.976   0.000  0.00  0.00    +0.000 A 
ENDROOT
BRANCH  10  12
ATOM     12  C   UNL     1       5.693   2.216   0.000  0.00  0.00    +0.000 A 
ATOM     13  C   UNL     1       4.980   2.631   0.000  0.00  0.00    +0.000 A 
ATOM     14  C   UNL     1       6.409   2.626   0.000  0.00  0.00    +0.000 A 
ATOM     15  C   UNL     1       4.983   3.456   0.000  0.00  0.00    +0.000 A 
ATOM     16  C   UNL     1       6.412   3.451   0.000  0.00  0.00    +0.000 A 
ATOM     17  C   UNL     1       5.699   3.866   0.000  0.00  0.00    +0.000 A 
BRANCH  17  18
ATOM     18  O   UNL     1       5.702   4.691   0.000  0.00  0.00    +0.000 OA
ATOM     19  C   UNL     1       4.990   5.106   0.000  0.00  0.00    +0.000 C 
ENDBRANCH  17  18
ENDBRANCH  10  12
BRANCH   4  20
ATOM     20  O   UNL     1       6.411  -1.525   0.000  0.00  0.00    +0.000 OA
ATOM     21  C   UNL     1       6.417  -2.350   0.000  0.00  0.00    +0.000 C 
ENDBRANCH   4  20
BRANCH   5  22
ATOM     22  O   UNL     1       3.491  -1.525   0.000  0.00  0.00    +0.000 OA
ATOM     23  C   UNL     1       2.779  -1.107   0.000  0.00  0.00    +0.000 C 
ENDBRANCH   5  22
BRANCH  11  24
ATOM     24  O   UNL     1       7.119   1.386   0.000  0.00  0.00    +0.000 OA
ATOM     25  C   UNL     1       7.832   0.970   0.000  0.00  0.00    +0.000 C 
ENDBRANCH  11  24
BRANCH   3  26
ATOM     26  O   UNL     1       4.951  -2.376   0.000  0.00  0.00    +0.000 OA
BRANCH  26  35
ATOM     27  O   UNL     1       3.522  -2.376   0.000  0.00  0.00    +0.000 OA
ATOM     28  O   UNL     1       3.522  -4.851   0.000  0.00  0.00    +0.000 OA
ATOM     29  O   UNL     1       2.093  -4.026   0.000  0.00  0.00    +0.000 OA
ATOM     30  O   UNL     1       4.951  -4.026   0.000  0.00  0.00    +0.000 OA
ATOM     31  C   UNL     1       3.522  -4.026   0.000  0.00  0.00    +0.000 C 
ATOM     32  C   UNL     1       2.808  -3.613   0.000  0.00  0.00    +0.000 C 
ATOM     33  C   UNL     1       4.236  -3.613   0.000  0.00  0.00    +0.000 C 
ATOM     34  C   UNL     1       2.808  -2.788   0.000  0.00  0.00    +0.000 C 
ATOM     35  C   UNL     1       4.236  -2.788   0.000  0.00  0.00    +0.000 C 
ATOM     36  C   UNL     1       2.093  -2.376   0.000  0.00  0.00    +0.000 C 
ENDBRANCH  26  35
ENDBRANCH   3  26
TORSDOF 7
