REMARK  Name = 44257903
REMARK  12 active torsions:
REMARK  status: ('A' for Active; 'I' for Inactive)
REMARK    1  A    between atoms: O_1  and  C_21
REMARK    2  A    between atoms: O_1  and  C_26
REMARK    3  A    between atoms: O_4  and  C_31
REMARK    4  A    between atoms: O_4  and  C_32
REMARK    5  A    between atoms: O_6  and  C_25
REMARK    6  A    between atoms: O_6  and  C_39
REMARK    7  A    between atoms: O_8  and  C_27
REMARK    8  A    between atoms: O_8  and  C_40
REMARK    9  A    between atoms: O_20  and  C_55
REMARK   10  A    between atoms: C_24  and  C_31
REMARK   11  A    between atoms: C_30  and  C_37
REMARK   12  A    between atoms: C_48  and  C_50
REMARK                            x       y       z     vdW  Elec       q    Type
REMARK                         _______ _______ _______ _____ _____    ______ ____
ROOT
ATOM      1  O   UNL     1       7.094  -0.305   0.000  0.00  0.00    +0.000 OA
ATOM      2  O   UNL     1       7.094  -2.780   0.000  0.00  0.00    +0.000 OA
ATOM      3  O   UNL     1       5.665  -1.955   0.000  0.00  0.00    +0.000 OA
ATOM      4  C   UNL     1       7.809  -1.542   0.000  0.00  0.00    +0.000 C 
ATOM      5  C   UNL     1       7.094  -1.955   0.000  0.00  0.00    +0.000 C 
ATOM      6  C   UNL     1       6.380  -1.542   0.000  0.00  0.00    +0.000 C 
ATOM      7  C   UNL     1       6.380  -0.717   0.000  0.00  0.00    +0.000 C 
ATOM      8  C   UNL     1       7.809  -0.717   0.000  0.00  0.00    +0.000 C 
ENDROOT
BRANCH   4   9
ATOM      9  O   UNL     1       8.523  -1.955   0.000  0.00  0.00    +0.000 OA
BRANCH   9  13
ATOM     10  O   UNL     1       7.809  -3.192   0.000  0.00  0.00    +0.000 OA
ATOM     11  O   UNL     1       9.952  -4.430   0.000  0.00  0.00    +0.000 OA
ATOM     12  O   UNL     1       8.523  -5.255   0.000  0.00  0.00    +0.000 OA
ATOM     13  C   UNL     1       8.523  -2.780   0.000  0.00  0.00    +0.000 C 
ATOM     14  C   UNL     1       9.238  -3.192   0.000  0.00  0.00    +0.000 C 
ATOM     15  C   UNL     1       9.238  -4.017   0.000  0.00  0.00    +0.000 C 
ATOM     16  C   UNL     1       8.523  -4.430   0.000  0.00  0.00    +0.000 C 
ATOM     17  C   UNL     1       7.809  -4.017   0.000  0.00  0.00    +0.000 C 
BRANCH  17  19
ATOM     18  O   UNL     1       6.380  -4.017   0.000  0.00  0.00    +0.000 OA
ATOM     19  C   UNL     1       7.094  -4.430   0.000  0.00  0.00    +0.000 C 
ENDBRANCH  17  19
BRANCH  14  20
ATOM     20  O   UNL     1       9.952  -2.780   0.000  0.00  0.00    +0.000 OA
BRANCH  20  22
ATOM     21  O   UNL     1      10.667  -4.017   0.000  0.00  0.00    +0.000 OA
ATOM     22  C   UNL     1      10.667  -3.192   0.000  0.00  0.00    +0.000 C 
ATOM     23  C   UNL     1      11.381  -2.780   0.000  0.00  0.00    +0.000 C 
ENDBRANCH  20  22
ENDBRANCH  14  20
ENDBRANCH   9  13
ENDBRANCH   4   9
BRANCH   8  24
ATOM     24  O   UNL     1       8.523  -0.305   0.000  0.00  0.00    +0.000 OA
BRANCH  24  28
ATOM     25  O   UNL     1       9.972   2.222   0.000  0.00  0.00    +0.000 OA
ATOM     26  O   UNL     1       7.082   2.235   0.000  0.00  0.00    +0.000 OA
ATOM     27  O   UNL     1       7.833   3.467   0.000  0.00  0.00    +0.000 OA
ATOM     28  C   UNL     1       8.523   0.520   0.000  0.00  0.00    +0.000 A 
ATOM     29  C   UNL     1       9.266   0.953   0.000  0.00  0.00    +0.000 A 
ATOM     30  C   UNL     1       7.781   0.953   0.000  0.00  0.00    +0.000 A 
ATOM     31  C   UNL     1       9.256   1.812   0.000  0.00  0.00    +0.000 A 
ATOM     32  C   UNL     1       7.791   1.812   0.000  0.00  0.00    +0.000 A 
ATOM     33  C   UNL     1       8.543   2.227   0.000  0.00  0.00    +0.000 A 
ATOM     34  C   UNL     1       8.546   3.052   0.000  0.00  0.00    +0.000 A 
ATOM     35  C   UNL     1       9.975   3.047   0.000  0.00  0.00    +0.000 A 
ATOM     36  C   UNL     1       9.262   3.462   0.000  0.00  0.00    +0.000 A 
BRANCH  35  37
ATOM     37  C   UNL     1      10.691   3.456   0.000  0.00  0.00    +0.000 A 
ATOM     38  C   UNL     1      10.694   4.281   0.000  0.00  0.00    +0.000 A 
ATOM     39  C   UNL     1      11.404   3.041   0.000  0.00  0.00    +0.000 A 
ATOM     40  C   UNL     1      11.410   4.691   0.000  0.00  0.00    +0.000 A 
ATOM     41  C   UNL     1      12.120   3.451   0.000  0.00  0.00    +0.000 A 
ATOM     42  C   UNL     1      12.123   4.276   0.000  0.00  0.00    +0.000 A 
BRANCH  42  43
ATOM     43  O   UNL     1      12.839   4.686   0.000  0.00  0.00    +0.000 OA
ATOM     44  C   UNL     1      12.842   5.511   0.000  0.00  0.00    +0.000 C 
ENDBRANCH  42  43
ENDBRANCH  35  37
ENDBRANCH  24  28
ENDBRANCH   8  24
BRANCH   7  45
ATOM     45  C   UNL     1       5.665  -0.305   0.000  0.00  0.00    +0.000 C 
BRANCH  45  46
ATOM     46  O   UNL     1       4.951  -0.717   0.000  0.00  0.00    +0.000 OA
BRANCH  46  51
ATOM     47  O   UNL     1       3.522  -0.717   0.000  0.00  0.00    +0.000 OA
ATOM     48  O   UNL     1       4.951   0.933   0.000  0.00  0.00    +0.000 OA
ATOM     49  O   UNL     1       3.522   1.758   0.000  0.00  0.00    +0.000 OA
ATOM     50  O   UNL     1       2.093   0.933   0.000  0.00  0.00    +0.000 OA
ATOM     51  C   UNL     1       4.236  -0.305   0.000  0.00  0.00    +0.000 C 
ATOM     52  C   UNL     1       4.236   0.520   0.000  0.00  0.00    +0.000 C 
ATOM     53  C   UNL     1       3.522   0.933   0.000  0.00  0.00    +0.000 C 
ATOM     54  C   UNL     1       2.808   0.520   0.000  0.00  0.00    +0.000 C 
ATOM     55  C   UNL     1       2.808  -0.305   0.000  0.00  0.00    +0.000 C 
ATOM     56  C   UNL     1       2.093  -0.717   0.000  0.00  0.00    +0.000 C 
ENDBRANCH  46  51
ENDBRANCH  45  46
ENDBRANCH   7  45
TORSDOF 12
