REMARK  Name = 44258511
REMARK  6 active torsions:
REMARK  status: ('A' for Active; 'I' for Inactive)
REMARK    1  A    between atoms: O_2  and  C_18
REMARK    2  A    between atoms: O_2  and  C_20
REMARK    3  A    between atoms: O_6  and  C_19
REMARK    4  A    between atoms: O_9  and  C_21
REMARK    5  A    between atoms: C_17  and  C_19
REMARK    6  A    between atoms: C_28  and  C_30
REMARK                            x       y       z     vdW  Elec       q    Type
REMARK                         _______ _______ _______ _____ _____    ______ ____
ROOT
ATOM      1  O   UNL     1       7.402   1.101   0.000  0.00  0.00    +0.000 OA
ATOM      2  O   UNL     1       4.508   1.095   0.000  0.00  0.00    +0.000 OA
ATOM      3  O   UNL     1       5.204   2.359   0.000  0.00  0.00    +0.000 OA
ATOM      4  C   UNL     1       5.937  -0.555   0.000  0.00  0.00    +0.000 A 
ATOM      5  C   UNL     1       5.222  -0.142   0.000  0.00  0.00    +0.000 A 
ATOM      6  C   UNL     1       6.651  -0.142   0.000  0.00  0.00    +0.000 A 
ATOM      7  C   UNL     1       6.651   0.683   0.000  0.00  0.00    +0.000 A 
ATOM      8  C   UNL     1       5.937   1.095   0.000  0.00  0.00    +0.000 A 
ATOM      9  C   UNL     1       5.222   0.683   0.000  0.00  0.00    +0.000 A 
ATOM     10  C   UNL     1       5.924   1.954   0.000  0.00  0.00    +0.000 A 
ATOM     11  C   UNL     1       7.409   1.960   0.000  0.00  0.00    +0.000 A 
ATOM     12  C   UNL     1       6.664   2.390   0.000  0.00  0.00    +0.000 A 
ENDROOT
BRANCH  11  15
ATOM     13  O   UNL     1      10.267   1.949   0.000  0.00  0.00    +0.000 OA
ATOM     14  O   UNL     1      10.273   3.599   0.000  0.00  0.00    +0.000 OA
ATOM     15  C   UNL     1       8.125   2.370   0.000  0.00  0.00    +0.000 A 
ATOM     16  C   UNL     1       8.838   1.955   0.000  0.00  0.00    +0.000 A 
ATOM     17  C   UNL     1       8.128   3.195   0.000  0.00  0.00    +0.000 A 
ATOM     18  C   UNL     1       9.554   2.364   0.000  0.00  0.00    +0.000 A 
ATOM     19  C   UNL     1       8.844   3.605   0.000  0.00  0.00    +0.000 A 
ATOM     20  C   UNL     1       9.557   3.189   0.000  0.00  0.00    +0.000 A 
ENDBRANCH  11  15
BRANCH   5  21
ATOM     21  O   UNL     1       4.508  -0.555   0.000  0.00  0.00    +0.000 OA
ATOM     22  C   UNL     1       3.793  -0.142   0.000  0.00  0.00    +0.000 C 
ENDBRANCH   5  21
BRANCH   4  23
ATOM     23  O   UNL     1       5.937  -1.380   0.000  0.00  0.00    +0.000 OA
BRANCH  23  32
ATOM     24  O   UNL     1       4.508  -1.380   0.000  0.00  0.00    +0.000 OA
ATOM     25  O   UNL     1       4.508  -3.855   0.000  0.00  0.00    +0.000 OA
ATOM     26  O   UNL     1       3.079  -3.030   0.000  0.00  0.00    +0.000 OA
ATOM     27  O   UNL     1       5.937  -3.030   0.000  0.00  0.00    +0.000 OA
ATOM     28  C   UNL     1       4.508  -3.030   0.000  0.00  0.00    +0.000 C 
ATOM     29  C   UNL     1       3.793  -2.617   0.000  0.00  0.00    +0.000 C 
ATOM     30  C   UNL     1       5.222  -2.617   0.000  0.00  0.00    +0.000 C 
ATOM     31  C   UNL     1       3.793  -1.792   0.000  0.00  0.00    +0.000 C 
ATOM     32  C   UNL     1       5.222  -1.792   0.000  0.00  0.00    +0.000 C 
BRANCH  31  34
ATOM     33  O   UNL     1       3.079  -0.555   0.000  0.00  0.00    +0.000 OA
ATOM     34  C   UNL     1       3.079  -1.380   0.000  0.00  0.00    +0.000 C 
BRANCH  34  35
ATOM     35  O   UNL     1       2.364  -1.792   0.000  0.00  0.00    +0.000 OA
ATOM     36  C   UNL     1       1.650  -1.380   0.000  0.00  0.00    +0.000 C 
ENDBRANCH  34  35
ENDBRANCH  31  34
ENDBRANCH  23  32
ENDBRANCH   4  23
TORSDOF 6
