REMARK  Name = 44258796
REMARK  7 active torsions:
REMARK  status: ('A' for Active; 'I' for Inactive)
REMARK    1  A    between atoms: O_2  and  C_12
REMARK    2  A    between atoms: O_2  and  C_19
REMARK    3  A    between atoms: O_3  and  C_16
REMARK    4  A    between atoms: O_3  and  C_18
REMARK    5  A    between atoms: C_20  and  C_25
REMARK    6  A    between atoms: C_24  and  C_28
REMARK    7  A    between atoms: C_28  and  C_33
REMARK                            x       y       z     vdW  Elec       q    Type
REMARK                         _______ _______ _______ _____ _____    ______ ____
ROOT
ATOM      1  O   UNL     1       5.937   0.610   0.000  0.00  0.00    +0.000 OA
ATOM      2  O   UNL     1       3.793  -0.627   0.000  0.00  0.00    +0.000 OA
ATOM      3  O   UNL     1       3.047   0.607   0.000  0.00  0.00    +0.000 OA
ATOM      4  O   UNL     1       4.498   3.142   0.000  0.00  0.00    +0.000 OA
ATOM      5  C   UNL     1       5.222  -0.627   0.000  0.00  0.00    +0.000 A 
ATOM      6  C   UNL     1       5.937  -0.215   0.000  0.00  0.00    +0.000 A 
ATOM      7  C   UNL     1       4.508  -0.215   0.000  0.00  0.00    +0.000 A 
ATOM      8  C   UNL     1       4.508   0.610   0.000  0.00  0.00    +0.000 A 
ATOM      9  C   UNL     1       5.222   1.022   0.000  0.00  0.00    +0.000 A 
ATOM     10  C   UNL     1       5.236   1.882   0.000  0.00  0.00    +0.000 A 
ATOM     11  C   UNL     1       3.757   1.028   0.000  0.00  0.00    +0.000 A 
ATOM     12  C   UNL     1       4.495   2.317   0.000  0.00  0.00    +0.000 A 
ATOM     13  C   UNL     1       3.751   1.887   0.000  0.00  0.00    +0.000 A 
ENDROOT
BRANCH   6  15
ATOM     14  O   UNL     1       8.795  -1.865   0.000  0.00  0.00    +0.000 OA
ATOM     15  C   UNL     1       6.651  -0.627   0.000  0.00  0.00    +0.000 A 
ATOM     16  C   UNL     1       6.651  -1.452   0.000  0.00  0.00    +0.000 A 
ATOM     17  C   UNL     1       7.366  -0.215   0.000  0.00  0.00    +0.000 A 
ATOM     18  C   UNL     1       7.366  -1.865   0.000  0.00  0.00    +0.000 A 
ATOM     19  C   UNL     1       8.080  -0.627   0.000  0.00  0.00    +0.000 A 
ATOM     20  C   UNL     1       8.080  -1.452   0.000  0.00  0.00    +0.000 A 
ENDBRANCH   6  15
BRANCH   5  21
ATOM     21  O   UNL     1       5.222  -1.452   0.000  0.00  0.00    +0.000 OA
BRANCH  21  29
ATOM     22  O   UNL     1       3.793  -1.452   0.000  0.00  0.00    +0.000 OA
ATOM     23  O   UNL     1       3.793  -3.928   0.000  0.00  0.00    +0.000 OA
ATOM     24  O   UNL     1       5.222  -3.103   0.000  0.00  0.00    +0.000 OA
ATOM     25  C   UNL     1       3.079  -2.690   0.000  0.00  0.00    +0.000 C 
ATOM     26  C   UNL     1       3.793  -3.103   0.000  0.00  0.00    +0.000 C 
ATOM     27  C   UNL     1       4.508  -2.690   0.000  0.00  0.00    +0.000 C 
ATOM     28  C   UNL     1       3.079  -1.865   0.000  0.00  0.00    +0.000 C 
ATOM     29  C   UNL     1       4.508  -1.865   0.000  0.00  0.00    +0.000 C 
ATOM     30  C   UNL     1       2.365  -1.452   0.000  0.00  0.00    +0.000 C 
BRANCH  25  31
ATOM     31  O   UNL     1       2.365  -3.103   0.000  0.00  0.00    +0.000 OA
BRANCH  31  33
ATOM     32  O   UNL     1       3.079  -4.340   0.000  0.00  0.00    +0.000 OA
ATOM     33  C   UNL     1       2.365  -3.928   0.000  0.00  0.00    +0.000 C 
ATOM     34  C   UNL     1       1.650  -4.340   0.000  0.00  0.00    +0.000 C 
ENDBRANCH  31  33
ENDBRANCH  25  31
ENDBRANCH  21  29
ENDBRANCH   5  21
BRANCH  10  35
ATOM     35  C   UNL     1       5.955   2.286   0.000  0.00  0.00    +0.000 C 
BRANCH  35  36
ATOM     36  C   UNL     1       5.964   3.111   0.000  0.00  0.00    +0.000 C 
ATOM     37  C   UNL     1       6.684   3.515   0.000  0.00  0.00    +0.000 C 
ATOM     38  C   UNL     1       6.693   4.340   0.000  0.00  0.00    +0.000 C 
ATOM     39  C   UNL     1       7.393   3.094   0.000  0.00  0.00    +0.000 C 
ENDBRANCH  35  36
ENDBRANCH  10  35
TORSDOF 7
