REMARK  Name = 70698920
REMARK  10 active torsions:
REMARK  status: ('A' for Active; 'I' for Inactive)
REMARK    1  A    between atoms: O_2  and  C_28
REMARK    2  A    between atoms: O_2  and  C_32
REMARK    3  A    between atoms: O_5  and  C_30
REMARK    4  A    between atoms: O_5  and  C_41
REMARK    5  A    between atoms: O_12  and  C_38
REMARK    6  A    between atoms: O_12  and  C_42
REMARK    7  A    between atoms: O_20  and  C_53
REMARK    8  A    between atoms: C_23  and  C_32
REMARK    9  A    between atoms: C_37  and  C_40
REMARK   10  A    between atoms: C_43  and  C_50
REMARK                            x       y       z     vdW  Elec       q    Type
REMARK                         _______ _______ _______ _____ _____    ______ ____
ROOT
ATOM      1  O   UNL     1       7.869   2.603   0.000  0.00  0.00    +0.000 OA
ATOM      2  O   UNL     1       7.869   0.128   0.000  0.00  0.00    +0.000 OA
ATOM      3  O   UNL     1       6.426   0.099   0.000  0.00  0.00    +0.000 OA
ATOM      4  C   UNL     1       8.583   1.365   0.000  0.00  0.00    +0.000 A 
ATOM      5  C   UNL     1       5.669   2.208   0.000  0.00  0.00    +0.000 A 
ATOM      6  C   UNL     1       8.583   2.190   0.000  0.00  0.00    +0.000 A 
ATOM      7  C   UNL     1       7.869   0.953   0.000  0.00  0.00    +0.000 A 
ATOM      8  C   UNL     1       7.154   1.365   0.000  0.00  0.00    +0.000 A 
ATOM      9  C   UNL     1       7.154   2.190   0.000  0.00  0.00    +0.000 A 
ATOM     10  C   UNL     1       6.417   2.631   0.000  0.00  0.00    +0.000 A 
ATOM     11  C   UNL     1       5.669   1.348   0.000  0.00  0.00    +0.000 A 
ATOM     12  C   UNL     1       6.417   0.924   0.000  0.00  0.00    +0.000 A 
ENDROOT
BRANCH   6  15
ATOM     13  O   UNL     1      11.441   2.190   0.000  0.00  0.00    +0.000 OA
ATOM     14  O   UNL     1      11.441   3.840   0.000  0.00  0.00    +0.000 OA
ATOM     15  C   UNL     1       9.297   2.603   0.000  0.00  0.00    +0.000 A 
ATOM     16  C   UNL     1       9.297   3.428   0.000  0.00  0.00    +0.000 A 
ATOM     17  C   UNL     1      10.012   2.190   0.000  0.00  0.00    +0.000 A 
ATOM     18  C   UNL     1      10.012   3.840   0.000  0.00  0.00    +0.000 A 
ATOM     19  C   UNL     1      10.726   2.603   0.000  0.00  0.00    +0.000 A 
ATOM     20  C   UNL     1      10.726   3.428   0.000  0.00  0.00    +0.000 A 
BRANCH  18  21
ATOM     21  O   UNL     1      10.012   4.665   0.000  0.00  0.00    +0.000 OA
ATOM     22  C   UNL     1       9.297   5.078   0.000  0.00  0.00    +0.000 C 
ENDBRANCH  18  21
ENDBRANCH   6  15
BRANCH   4  23
ATOM     23  O   UNL     1       9.297   0.953   0.000  0.00  0.00    +0.000 OA
BRANCH  23  32
ATOM     24  O   UNL     1       8.583  -0.285   0.000  0.00  0.00    +0.000 OA
ATOM     25  O   UNL     1       9.297  -2.347   0.000  0.00  0.00    +0.000 OA
ATOM     26  O   UNL     1      10.726  -1.522   0.000  0.00  0.00    +0.000 OA
ATOM     27  O   UNL     1      10.726   0.128   0.000  0.00  0.00    +0.000 OA
ATOM     28  C   UNL     1       8.583  -1.110   0.000  0.00  0.00    +0.000 C 
ATOM     29  C   UNL     1       9.297  -1.522   0.000  0.00  0.00    +0.000 C 
ATOM     30  C   UNL     1      10.012  -1.110   0.000  0.00  0.00    +0.000 C 
ATOM     31  C   UNL     1      10.012  -0.285   0.000  0.00  0.00    +0.000 C 
ATOM     32  C   UNL     1       9.297   0.128   0.000  0.00  0.00    +0.000 C 
BRANCH  28  33
ATOM     33  C   UNL     1       7.869  -1.522   0.000  0.00  0.00    +0.000 C 
BRANCH  33  34
ATOM     34  O   UNL     1       7.869  -2.347   0.000  0.00  0.00    +0.000 OA
BRANCH  34  40
ATOM     35  O   UNL     1       6.440  -2.347   0.000  0.00  0.00    +0.000 OA
ATOM     36  O   UNL     1       7.869  -3.997   0.000  0.00  0.00    +0.000 OA
ATOM     37  O   UNL     1       6.440  -4.822   0.000  0.00  0.00    +0.000 OA
ATOM     38  O   UNL     1       5.011  -3.997   0.000  0.00  0.00    +0.000 OA
ATOM     39  C   UNL     1       7.154  -3.585   0.000  0.00  0.00    +0.000 C 
ATOM     40  C   UNL     1       7.154  -2.760   0.000  0.00  0.00    +0.000 C 
ATOM     41  C   UNL     1       6.440  -3.997   0.000  0.00  0.00    +0.000 C 
ATOM     42  C   UNL     1       5.725  -3.585   0.000  0.00  0.00    +0.000 C 
ATOM     43  C   UNL     1       5.725  -2.760   0.000  0.00  0.00    +0.000 C 
ATOM     44  C   UNL     1       5.011  -2.347   0.000  0.00  0.00    +0.000 C 
ENDBRANCH  34  40
ENDBRANCH  33  34
ENDBRANCH  28  33
ENDBRANCH  23  32
ENDBRANCH   4  23
BRANCH   5  45
ATOM     45  O   UNL     1       4.956   2.623   0.000  0.00  0.00    +0.000 OA
BRANCH  45  54
ATOM     46  O   UNL     1       3.527   2.628   0.000  0.00  0.00    +0.000 OA
ATOM     47  O   UNL     1       3.518   0.153   0.000  0.00  0.00    +0.000 OA
ATOM     48  O   UNL     1       2.092   0.984   0.000  0.00  0.00    +0.000 OA
ATOM     49  O   UNL     1       4.950   0.973   0.000  0.00  0.00    +0.000 OA
ATOM     50  C   UNL     1       3.521   0.978   0.000  0.00  0.00    +0.000 C 
ATOM     51  C   UNL     1       2.808   1.394   0.000  0.00  0.00    +0.000 C 
ATOM     52  C   UNL     1       4.237   1.388   0.000  0.00  0.00    +0.000 C 
ATOM     53  C   UNL     1       2.811   2.219   0.000  0.00  0.00    +0.000 C 
ATOM     54  C   UNL     1       4.240   2.213   0.000  0.00  0.00    +0.000 C 
BRANCH  53  56
ATOM     55  O   UNL     1       2.102   3.459   0.000  0.00  0.00    +0.000 OA
ATOM     56  C   UNL     1       2.098   2.634   0.000  0.00  0.00    +0.000 C 
ENDBRANCH  53  56
ENDBRANCH  45  54
ENDBRANCH   5  45
TORSDOF 10
