REMARK  Name = 44259692
REMARK  3 active torsions:
REMARK  status: ('A' for Active; 'I' for Inactive)
REMARK    1  A    between atoms: O_2  and  C_12
REMARK    2  A    between atoms: O_6  and  C_21
REMARK    3  A    between atoms: C_10  and  C_15
REMARK                            x       y       z     vdW  Elec       q    Type
REMARK                         _______ _______ _______ _____ _____    ______ ____
ROOT
ATOM      1  O   UNL     1       4.562  -0.145   0.000  0.00  0.00    +0.000 OA
ATOM      2  O   UNL     1       3.120   2.359   0.000  0.00  0.00    +0.000 OA
ATOM      3  O   UNL     1       1.650  -0.165   0.000  0.00  0.00    +0.000 OA
ATOM      4  O   UNL     1       4.562   2.330   0.000  0.00  0.00    +0.000 OA
ATOM      5  C   UNL     1       3.848   1.093   0.000  0.00  0.00    +0.000 A 
ATOM      6  C   UNL     1       3.848   0.268   0.000  0.00  0.00    +0.000 A 
ATOM      7  C   UNL     1       5.277   0.268   0.000  0.00  0.00    +0.000 A 
ATOM      8  C   UNL     1       3.110   1.534   0.000  0.00  0.00    +0.000 A 
ATOM      9  C   UNL     1       5.277   1.093   0.000  0.00  0.00    +0.000 A 
ATOM     10  C   UNL     1       4.562   1.505   0.000  0.00  0.00    +0.000 A 
ATOM     11  C   UNL     1       2.363   1.110   0.000  0.00  0.00    +0.000 A 
ATOM     12  C   UNL     1       3.110  -0.173   0.000  0.00  0.00    +0.000 A 
ATOM     13  C   UNL     1       2.363   0.251   0.000  0.00  0.00    +0.000 A 
ATOM     14  C   UNL     1       1.650   1.525   0.000  0.00  0.00    +0.000 C 
ENDROOT
BRANCH   7  16
ATOM     15  O   UNL     1       8.135  -1.382   0.000  0.00  0.00    +0.000 OA
ATOM     16  C   UNL     1       5.991  -0.145   0.000  0.00  0.00    +0.000 A 
ATOM     17  C   UNL     1       5.991  -0.970   0.000  0.00  0.00    +0.000 A 
ATOM     18  C   UNL     1       6.706   0.268   0.000  0.00  0.00    +0.000 A 
ATOM     19  C   UNL     1       6.706  -1.382   0.000  0.00  0.00    +0.000 A 
ATOM     20  C   UNL     1       7.420  -0.145   0.000  0.00  0.00    +0.000 A 
ATOM     21  C   UNL     1       7.420  -0.970   0.000  0.00  0.00    +0.000 A 
BRANCH  19  22
ATOM     22  O   UNL     1       6.706  -2.207   0.000  0.00  0.00    +0.000 OA
ATOM     23  C   UNL     1       7.420  -2.620   0.000  0.00  0.00    +0.000 C 
ENDBRANCH  19  22
ENDBRANCH   7  16
BRANCH   9  24
ATOM     24  O   UNL     1       5.991   1.505   0.000  0.00  0.00    +0.000 OA
ATOM     25  C   UNL     1       5.991   2.330   0.000  0.00  0.00    +0.000 C 
ENDBRANCH   9  24
TORSDOF 3
