REMARK  Name = 44260023
REMARK  8 active torsions:
REMARK  status: ('A' for Active; 'I' for Inactive)
REMARK    1  A    between atoms: O_2  and  C_16
REMARK    2  A    between atoms: O_2  and  C_22
REMARK    3  A    between atoms: O_3  and  C_12
REMARK    4  A    between atoms: O_4  and  C_13
REMARK    5  A    between atoms: O_5  and  C_15
REMARK    6  A    between atoms: O_7  and  C_21
REMARK    7  A    between atoms: C_11  and  C_17
REMARK    8  A    between atoms: C_22  and  C_25
REMARK                            x       y       z     vdW  Elec       q    Type
REMARK                         _______ _______ _______ _____ _____    ______ ____
ROOT
ATOM      1  O   UNL     1       7.420  -0.225   0.000  0.00  0.00    +0.000 OA
ATOM      2  O   UNL     1       7.420   2.250   0.000  0.00  0.00    +0.000 OA
ATOM      3  C   UNL     1       6.706   1.013   0.000  0.00  0.00    +0.000 A 
ATOM      4  C   UNL     1       6.706   0.188   0.000  0.00  0.00    +0.000 A 
ATOM      5  C   UNL     1       8.135   0.188   0.000  0.00  0.00    +0.000 A 
ATOM      6  C   UNL     1       5.968  -0.253   0.000  0.00  0.00    +0.000 A 
ATOM      7  C   UNL     1       5.968   1.454   0.000  0.00  0.00    +0.000 A 
ATOM      8  C   UNL     1       7.420   1.425   0.000  0.00  0.00    +0.000 A 
ATOM      9  C   UNL     1       8.135   1.013   0.000  0.00  0.00    +0.000 A 
ATOM     10  C   UNL     1       5.221   0.171   0.000  0.00  0.00    +0.000 A 
ATOM     11  C   UNL     1       5.221   1.030   0.000  0.00  0.00    +0.000 A 
ENDROOT
BRANCH   5  13
ATOM     12  O   UNL     1      10.992  -1.462   0.000  0.00  0.00    +0.000 OA
ATOM     13  C   UNL     1       8.849  -0.225   0.000  0.00  0.00    +0.000 A 
ATOM     14  C   UNL     1       8.849  -1.050   0.000  0.00  0.00    +0.000 A 
ATOM     15  C   UNL     1       9.564   0.188   0.000  0.00  0.00    +0.000 A 
ATOM     16  C   UNL     1       9.564  -1.462   0.000  0.00  0.00    +0.000 A 
ATOM     17  C   UNL     1      10.278  -0.225   0.000  0.00  0.00    +0.000 A 
ATOM     18  C   UNL     1      10.278  -1.050   0.000  0.00  0.00    +0.000 A 
BRANCH  16  19
ATOM     19  O   UNL     1       9.564  -2.287   0.000  0.00  0.00    +0.000 OA
ATOM     20  C   UNL     1      10.278  -2.700   0.000  0.00  0.00    +0.000 C 
ENDBRANCH  16  19
ENDBRANCH   5  13
BRANCH   6  21
ATOM     21  O   UNL     1       5.978  -1.078   0.000  0.00  0.00    +0.000 OA
ATOM     22  C   UNL     1       5.268  -1.499   0.000  0.00  0.00    +0.000 C 
ENDBRANCH   6  21
BRANCH   7  23
ATOM     23  O   UNL     1       5.978   2.279   0.000  0.00  0.00    +0.000 OA
ATOM     24  C   UNL     1       5.268   2.700   0.000  0.00  0.00    +0.000 C 
ENDBRANCH   7  23
BRANCH   9  25
ATOM     25  O   UNL     1       8.849   1.425   0.000  0.00  0.00    +0.000 OA
ATOM     26  C   UNL     1       8.849   2.250   0.000  0.00  0.00    +0.000 C 
ENDBRANCH   9  25
BRANCH  10  27
ATOM     27  O   UNL     1       4.508  -0.244   0.000  0.00  0.00    +0.000 OA
BRANCH  27  28
ATOM     28  C   UNL     1       3.792   0.165   0.000  0.00  0.00    +0.000 C 
BRANCH  28  29
ATOM     29  C   UNL     1       3.079  -0.250   0.000  0.00  0.00    +0.000 C 
ATOM     30  C   UNL     1       2.363   0.160   0.000  0.00  0.00    +0.000 C 
ATOM     31  C   UNL     1       1.650  -0.256   0.000  0.00  0.00    +0.000 C 
ATOM     32  C   UNL     1       2.360   0.985   0.000  0.00  0.00    +0.000 C 
ENDBRANCH  28  29
ENDBRANCH  27  28
ENDBRANCH  10  27
TORSDOF 8
