REMARK  Name = 125896
REMARK  8 active torsions:
REMARK  status: ('A' for Active; 'I' for Inactive)
REMARK    1  A    between atoms: O_2  and  C_22
REMARK    2  A    between atoms: O_2  and  C_24
REMARK    3  A    between atoms: O_4  and  C_20
REMARK    4  A    between atoms: O_4  and  C_28
REMARK    5  A    between atoms: C_16  and  C_24
REMARK    6  A    between atoms: C_31  and  C_38
REMARK    7  A    between atoms: C_35  and  C_37
REMARK    8  A    between atoms: C_37  and  C_39
REMARK                            x       y       z     vdW  Elec       q    Type
REMARK                         _______ _______ _______ _____ _____    ______ ____
ROOT
ATOM      1  O   UNL     1       5.209   2.274   0.000  0.00  0.00    +0.000 OA
ATOM      2  O   UNL     1       5.222  -1.061   0.000  0.00  0.00    +0.000 OA
ATOM      3  O   UNL     1       3.793  -0.236   0.000  0.00  0.00    +0.000 OA
ATOM      4  O   UNL     1       7.397   0.999   0.000  0.00  0.00    +0.000 OA
ATOM      5  C   UNL     1       5.937   0.177   0.000  0.00  0.00    +0.000 A 
ATOM      6  C   UNL     1       5.937   1.002   0.000  0.00  0.00    +0.000 A 
ATOM      7  C   UNL     1       5.222   1.414   0.000  0.00  0.00    +0.000 A 
ATOM      8  C   UNL     1       5.950   2.709   0.000  0.00  0.00    +0.000 C 
ATOM      9  C   UNL     1       5.222  -0.236   0.000  0.00  0.00    +0.000 A 
ATOM     10  C   UNL     1       6.694   2.279   0.000  0.00  0.00    +0.000 C 
ATOM     11  C   UNL     1       6.688   1.420   0.000  0.00  0.00    +0.000 C 
ATOM     12  C   UNL     1       4.508   1.002   0.000  0.00  0.00    +0.000 A 
ATOM     13  C   UNL     1       4.508   0.177   0.000  0.00  0.00    +0.000 A 
ENDROOT
BRANCH   8  15
ATOM     14  O   UNL     1       5.937   6.009   0.000  0.00  0.00    +0.000 OA
ATOM     15  C   UNL     1       5.947   3.534   0.000  0.00  0.00    +0.000 A 
ATOM     16  C   UNL     1       5.231   3.944   0.000  0.00  0.00    +0.000 A 
ATOM     17  C   UNL     1       6.660   3.949   0.000  0.00  0.00    +0.000 A 
ATOM     18  C   UNL     1       5.228   4.769   0.000  0.00  0.00    +0.000 A 
ATOM     19  C   UNL     1       6.657   4.774   0.000  0.00  0.00    +0.000 A 
ATOM     20  C   UNL     1       5.940   5.184   0.000  0.00  0.00    +0.000 A 
ENDBRANCH   8  15
BRANCH   5  21
ATOM     21  O   UNL     1       6.651  -0.236   0.000  0.00  0.00    +0.000 OA
BRANCH  21  30
ATOM     22  O   UNL     1       5.937  -1.473   0.000  0.00  0.00    +0.000 OA
ATOM     23  O   UNL     1       6.651  -3.536   0.000  0.00  0.00    +0.000 OA
ATOM     24  O   UNL     1       8.080  -2.711   0.000  0.00  0.00    +0.000 OA
ATOM     25  O   UNL     1       8.080  -1.061   0.000  0.00  0.00    +0.000 OA
ATOM     26  C   UNL     1       5.937  -2.298   0.000  0.00  0.00    +0.000 C 
ATOM     27  C   UNL     1       6.651  -2.711   0.000  0.00  0.00    +0.000 C 
ATOM     28  C   UNL     1       7.366  -2.298   0.000  0.00  0.00    +0.000 C 
ATOM     29  C   UNL     1       7.366  -1.473   0.000  0.00  0.00    +0.000 C 
ATOM     30  C   UNL     1       6.651  -1.061   0.000  0.00  0.00    +0.000 C 
BRANCH  26  31
ATOM     31  C   UNL     1       5.222  -2.711   0.000  0.00  0.00    +0.000 C 
BRANCH  31  32
ATOM     32  O   UNL     1       5.222  -3.536   0.000  0.00  0.00    +0.000 OA
BRANCH  32  38
ATOM     33  O   UNL     1       3.793  -3.536   0.000  0.00  0.00    +0.000 OA
ATOM     34  O   UNL     1       5.222  -5.186   0.000  0.00  0.00    +0.000 OA
ATOM     35  O   UNL     1       3.793  -6.011   0.000  0.00  0.00    +0.000 OA
ATOM     36  O   UNL     1       2.364  -5.186   0.000  0.00  0.00    +0.000 OA
ATOM     37  C   UNL     1       4.508  -4.773   0.000  0.00  0.00    +0.000 C 
ATOM     38  C   UNL     1       4.508  -3.948   0.000  0.00  0.00    +0.000 C 
ATOM     39  C   UNL     1       3.793  -5.186   0.000  0.00  0.00    +0.000 C 
ATOM     40  C   UNL     1       3.079  -4.773   0.000  0.00  0.00    +0.000 C 
ATOM     41  C   UNL     1       3.079  -3.948   0.000  0.00  0.00    +0.000 C 
ATOM     42  C   UNL     1       2.364  -3.536   0.000  0.00  0.00    +0.000 C 
ENDBRANCH  32  38
ENDBRANCH  31  32
ENDBRANCH  26  31
ENDBRANCH  21  30
ENDBRANCH   5  21
BRANCH  12  43
ATOM     43  C   UNL     1       3.793   1.414   0.000  0.00  0.00    +0.000 C 
BRANCH  43  44
ATOM     44  C   UNL     1       3.079   1.002   0.000  0.00  0.00    +0.000 C 
ATOM     45  C   UNL     1       2.364   1.414   0.000  0.00  0.00    +0.000 C 
ATOM     46  C   UNL     1       1.650   1.002   0.000  0.00  0.00    +0.000 C 
ATOM     47  C   UNL     1       2.364   2.239   0.000  0.00  0.00    +0.000 C 
ENDBRANCH  43  44
ENDBRANCH  12  43
TORSDOF 8
