REMARK  Name = 44258525
REMARK  11 active torsions:
REMARK  status: ('A' for Active; 'I' for Inactive)
REMARK    1  A    between atoms: O_1  and  C_18
REMARK    2  A    between atoms: O_1  and  C_21
REMARK    3  A    between atoms: O_7  and  C_27
REMARK    4  A    between atoms: O_7  and  C_30
REMARK    5  A    between atoms: O_12  and  C_31
REMARK    6  A    between atoms: O_14  and  C_34
REMARK    7  A    between atoms: O_16  and  C_44
REMARK    8  A    between atoms: O_17  and  C_46
REMARK    9  A    between atoms: C_20  and  C_28
REMARK   10  A    between atoms: C_26  and  C_29
REMARK   11  A    between atoms: C_37  and  C_40
REMARK                            x       y       z     vdW  Elec       q    Type
REMARK                         _______ _______ _______ _____ _____    ______ ____
ROOT
ATOM      1  O   UNL     1       4.250   2.195   0.000  0.00  0.00    +0.000 OA
ATOM      2  O   UNL     1       2.062   0.920   0.000  0.00  0.00    +0.000 OA
ATOM      3  C   UNL     1       4.951   0.098   0.000  0.00  0.00    +0.000 A 
ATOM      4  C   UNL     1       4.236  -0.315   0.000  0.00  0.00    +0.000 A 
ATOM      5  C   UNL     1       4.951   0.923   0.000  0.00  0.00    +0.000 A 
ATOM      6  C   UNL     1       4.236   1.335   0.000  0.00  0.00    +0.000 A 
ATOM      7  C   UNL     1       3.522   0.098   0.000  0.00  0.00    +0.000 A 
ATOM      8  C   UNL     1       3.522   0.923   0.000  0.00  0.00    +0.000 A 
ATOM      9  C   UNL     1       2.771   1.341   0.000  0.00  0.00    +0.000 A 
ATOM     10  C   UNL     1       3.509   2.630   0.000  0.00  0.00    +0.000 A 
ATOM     11  C   UNL     1       2.765   2.200   0.000  0.00  0.00    +0.000 A 
ENDROOT
BRANCH  10  12
ATOM     12  C   UNL     1       3.512   3.455   0.000  0.00  0.00    +0.000 A 
ATOM     13  C   UNL     1       4.228   3.865   0.000  0.00  0.00    +0.000 A 
ATOM     14  C   UNL     1       2.799   3.870   0.000  0.00  0.00    +0.000 A 
ATOM     15  C   UNL     1       4.231   4.690   0.000  0.00  0.00    +0.000 A 
ATOM     16  C   UNL     1       2.802   4.695   0.000  0.00  0.00    +0.000 A 
ATOM     17  C   UNL     1       3.518   5.105   0.000  0.00  0.00    +0.000 A 
BRANCH  15  18
ATOM     18  O   UNL     1       4.947   5.100   0.000  0.00  0.00    +0.000 OA
ATOM     19  C   UNL     1       4.950   5.925   0.000  0.00  0.00    +0.000 C 
ENDBRANCH  15  18
BRANCH  17  20
ATOM     20  O   UNL     1       3.521   5.930   0.000  0.00  0.00    +0.000 OA
ATOM     21  C   UNL     1       2.809   6.345   0.000  0.00  0.00    +0.000 C 
ENDBRANCH  17  20
ENDBRANCH  10  12
BRANCH   4  22
ATOM     22  O   UNL     1       4.236  -1.140   0.000  0.00  0.00    +0.000 OA
ATOM     23  C   UNL     1       3.522  -1.552   0.000  0.00  0.00    +0.000 C 
ENDBRANCH   4  22
BRANCH   7  24
ATOM     24  O   UNL     1       2.808  -0.315   0.000  0.00  0.00    +0.000 OA
ATOM     25  C   UNL     1       2.808  -1.140   0.000  0.00  0.00    +0.000 C 
ENDBRANCH   7  24
BRANCH   3  26
ATOM     26  O   UNL     1       5.665  -0.315   0.000  0.00  0.00    +0.000 OA
BRANCH  26  34
ATOM     27  O   UNL     1       4.951  -1.552   0.000  0.00  0.00    +0.000 OA
ATOM     28  O   UNL     1       7.094  -2.790   0.000  0.00  0.00    +0.000 OA
ATOM     29  O   UNL     1       7.094  -1.140   0.000  0.00  0.00    +0.000 OA
ATOM     30  C   UNL     1       5.665  -2.790   0.000  0.00  0.00    +0.000 C 
ATOM     31  C   UNL     1       6.380  -2.377   0.000  0.00  0.00    +0.000 C 
ATOM     32  C   UNL     1       4.951  -2.377   0.000  0.00  0.00    +0.000 C 
ATOM     33  C   UNL     1       6.380  -1.552   0.000  0.00  0.00    +0.000 C 
ATOM     34  C   UNL     1       5.665  -1.140   0.000  0.00  0.00    +0.000 C 
BRANCH  32  36
ATOM     35  O   UNL     1       3.522  -2.377   0.000  0.00  0.00    +0.000 OA
ATOM     36  C   UNL     1       4.236  -2.790   0.000  0.00  0.00    +0.000 C 
ENDBRANCH  32  36
BRANCH  30  37
ATOM     37  O   UNL     1       5.665  -3.615   0.000  0.00  0.00    +0.000 OA
BRANCH  37  42
ATOM     38  O   UNL     1       4.236  -3.615   0.000  0.00  0.00    +0.000 OA
ATOM     39  O   UNL     1       5.665  -5.265   0.000  0.00  0.00    +0.000 OA
ATOM     40  O   UNL     1       4.236  -6.090   0.000  0.00  0.00    +0.000 OA
ATOM     41  O   UNL     1       2.808  -5.265   0.000  0.00  0.00    +0.000 OA
ATOM     42  C   UNL     1       4.951  -4.027   0.000  0.00  0.00    +0.000 C 
ATOM     43  C   UNL     1       4.951  -4.852   0.000  0.00  0.00    +0.000 C 
ATOM     44  C   UNL     1       4.236  -5.265   0.000  0.00  0.00    +0.000 C 
ATOM     45  C   UNL     1       3.522  -4.852   0.000  0.00  0.00    +0.000 C 
ATOM     46  C   UNL     1       3.522  -4.027   0.000  0.00  0.00    +0.000 C 
BRANCH  46  48
ATOM     47  O   UNL     1       2.093  -4.027   0.000  0.00  0.00    +0.000 OA
ATOM     48  C   UNL     1       2.808  -3.615   0.000  0.00  0.00    +0.000 C 
ENDBRANCH  46  48
ENDBRANCH  37  42
ENDBRANCH  30  37
ENDBRANCH  26  34
ENDBRANCH   3  26
TORSDOF 11
