REMARK  Name = 44259411
REMARK  6 active torsions:
REMARK  status: ('A' for Active; 'I' for Inactive)
REMARK    1  A    between atoms: O_2  and  C_16
REMARK    2  A    between atoms: O_2  and  C_18
REMARK    3  A    between atoms: O_10  and  C_34
REMARK    4  A    between atoms: C_19  and  C_24
REMARK    5  A    between atoms: C_23  and  C_26
REMARK    6  A    between atoms: C_26  and  C_31
REMARK                            x       y       z     vdW  Elec       q    Type
REMARK                         _______ _______ _______ _____ _____    ______ ____
ROOT
ATOM      1  O   UNL     1       5.665   0.532   0.000  0.00  0.00    +0.000 OA
ATOM      2  O   UNL     1       3.522  -0.706   0.000  0.00  0.00    +0.000 OA
ATOM      3  O   UNL     1       2.776   0.529   0.000  0.00  0.00    +0.000 OA
ATOM      4  O   UNL     1       4.226   3.064   0.000  0.00  0.00    +0.000 OA
ATOM      5  C   UNL     1       4.951  -0.706   0.000  0.00  0.00    +0.000 A 
ATOM      6  C   UNL     1       5.665  -0.293   0.000  0.00  0.00    +0.000 A 
ATOM      7  C   UNL     1       4.236  -0.293   0.000  0.00  0.00    +0.000 A 
ATOM      8  C   UNL     1       4.236   0.532   0.000  0.00  0.00    +0.000 A 
ATOM      9  C   UNL     1       4.951   0.944   0.000  0.00  0.00    +0.000 A 
ATOM     10  C   UNL     1       4.964   1.803   0.000  0.00  0.00    +0.000 A 
ATOM     11  C   UNL     1       3.486   0.950   0.000  0.00  0.00    +0.000 A 
ATOM     12  C   UNL     1       4.223   2.239   0.000  0.00  0.00    +0.000 A 
ATOM     13  C   UNL     1       3.479   1.809   0.000  0.00  0.00    +0.000 A 
ENDROOT
BRANCH   6  15
ATOM     14  O   UNL     1       8.523  -0.293   0.000  0.00  0.00    +0.000 OA
ATOM     15  C   UNL     1       6.380  -0.706   0.000  0.00  0.00    +0.000 A 
ATOM     16  C   UNL     1       7.094  -0.293   0.000  0.00  0.00    +0.000 A 
ATOM     17  C   UNL     1       6.380  -1.531   0.000  0.00  0.00    +0.000 A 
ATOM     18  C   UNL     1       7.809  -0.706   0.000  0.00  0.00    +0.000 A 
ATOM     19  C   UNL     1       7.094  -1.943   0.000  0.00  0.00    +0.000 A 
ATOM     20  C   UNL     1       7.809  -1.531   0.000  0.00  0.00    +0.000 A 
BRANCH  20  21
ATOM     21  O   UNL     1       8.523  -1.943   0.000  0.00  0.00    +0.000 OA
ATOM     22  C   UNL     1       9.238  -1.531   0.000  0.00  0.00    +0.000 C 
ENDBRANCH  20  21
ENDBRANCH   6  15
BRANCH   5  23
ATOM     23  O   UNL     1       4.951  -1.531   0.000  0.00  0.00    +0.000 OA
BRANCH  23  32
ATOM     24  O   UNL     1       3.522  -1.531   0.000  0.00  0.00    +0.000 OA
ATOM     25  O   UNL     1       3.522  -4.006   0.000  0.00  0.00    +0.000 OA
ATOM     26  O   UNL     1       2.093  -3.181   0.000  0.00  0.00    +0.000 OA
ATOM     27  O   UNL     1       4.951  -3.181   0.000  0.00  0.00    +0.000 OA
ATOM     28  C   UNL     1       3.522  -3.181   0.000  0.00  0.00    +0.000 C 
ATOM     29  C   UNL     1       2.808  -2.768   0.000  0.00  0.00    +0.000 C 
ATOM     30  C   UNL     1       4.236  -2.768   0.000  0.00  0.00    +0.000 C 
ATOM     31  C   UNL     1       2.808  -1.943   0.000  0.00  0.00    +0.000 C 
ATOM     32  C   UNL     1       4.236  -1.943   0.000  0.00  0.00    +0.000 C 
ATOM     33  C   UNL     1       2.093  -1.531   0.000  0.00  0.00    +0.000 C 
ENDBRANCH  23  32
ENDBRANCH   5  23
BRANCH  10  34
ATOM     34  C   UNL     1       5.683   2.208   0.000  0.00  0.00    +0.000 C 
BRANCH  34  35
ATOM     35  C   UNL     1       5.693   3.033   0.000  0.00  0.00    +0.000 C 
ATOM     36  C   UNL     1       6.412   3.437   0.000  0.00  0.00    +0.000 C 
ATOM     37  C   UNL     1       6.422   4.262   0.000  0.00  0.00    +0.000 C 
ATOM     38  C   UNL     1       7.122   3.016   0.000  0.00  0.00    +0.000 C 
ENDBRANCH  34  35
ENDBRANCH  10  34
TORSDOF 6
