REMARK  Name = 44257982
REMARK  8 active torsions:
REMARK  status: ('A' for Active; 'I' for Inactive)
REMARK    1  A    between atoms: O_2  and  C_22
REMARK    2  A    between atoms: O_2  and  C_27
REMARK    3  A    between atoms: O_12  and  C_38
REMARK    4  A    between atoms: O_12  and  C_46
REMARK    5  A    between atoms: C_26  and  C_32
REMARK    6  A    between atoms: C_31  and  C_33
REMARK    7  A    between atoms: C_37  and  C_42
REMARK    8  A    between atoms: C_47  and  C_49
REMARK                            x       y       z     vdW  Elec       q    Type
REMARK                         _______ _______ _______ _____ _____    ______ ____
ROOT
ATOM      1  O   UNL     1       6.380   1.097   0.000  0.00  0.00    +0.000 OA
ATOM      2  O   UNL     1       7.809  -1.379   0.000  0.00  0.00    +0.000 OA
ATOM      3  O   UNL     1       9.274   1.102   0.000  0.00  0.00    +0.000 OA
ATOM      4  O   UNL     1       7.076   2.360   0.000  0.00  0.00    +0.000 OA
ATOM      5  C   UNL     1       7.094  -0.141   0.000  0.00  0.00    +0.000 A 
ATOM      6  C   UNL     1       7.094   0.684   0.000  0.00  0.00    +0.000 A 
ATOM      7  C   UNL     1       7.809  -0.553   0.000  0.00  0.00    +0.000 A 
ATOM      8  C   UNL     1       7.809   1.097   0.000  0.00  0.00    +0.000 A 
ATOM      9  C   UNL     1       8.523  -0.141   0.000  0.00  0.00    +0.000 A 
ATOM     10  C   UNL     1       8.523   0.684   0.000  0.00  0.00    +0.000 A 
ATOM     11  C   UNL     1       7.795   1.956   0.000  0.00  0.00    +0.000 A 
ATOM     12  C   UNL     1       9.281   1.962   0.000  0.00  0.00    +0.000 A 
ATOM     13  C   UNL     1       8.536   2.391   0.000  0.00  0.00    +0.000 A 
ENDROOT
BRANCH   5  22
ATOM     14  O   UNL     1       6.380  -1.379   0.000  0.00  0.00    +0.000 OA
ATOM     15  O   UNL     1       4.236  -1.791   0.000  0.00  0.00    +0.000 OA
ATOM     16  O   UNL     1       4.236  -0.141   0.000  0.00  0.00    +0.000 OA
ATOM     17  O   UNL     1       5.665   0.684   0.000  0.00  0.00    +0.000 OA
ATOM     18  C   UNL     1       5.665  -1.791   0.000  0.00  0.00    +0.000 C 
ATOM     19  C   UNL     1       4.951  -1.379   0.000  0.00  0.00    +0.000 C 
ATOM     20  C   UNL     1       4.951  -0.553   0.000  0.00  0.00    +0.000 C 
ATOM     21  C   UNL     1       5.665  -0.141   0.000  0.00  0.00    +0.000 C 
ATOM     22  C   UNL     1       6.380  -0.553   0.000  0.00  0.00    +0.000 C 
BRANCH  18  23
ATOM     23  O   UNL     1       5.665  -2.616   0.000  0.00  0.00    +0.000 OA
BRANCH  23  28
ATOM     24  O   UNL     1       4.236  -2.616   0.000  0.00  0.00    +0.000 OA
ATOM     25  O   UNL     1       5.665  -4.266   0.000  0.00  0.00    +0.000 OA
ATOM     26  O   UNL     1       4.236  -5.091   0.000  0.00  0.00    +0.000 OA
ATOM     27  O   UNL     1       2.808  -4.266   0.000  0.00  0.00    +0.000 OA
ATOM     28  C   UNL     1       4.951  -3.029   0.000  0.00  0.00    +0.000 C 
ATOM     29  C   UNL     1       4.951  -3.853   0.000  0.00  0.00    +0.000 C 
ATOM     30  C   UNL     1       4.236  -4.266   0.000  0.00  0.00    +0.000 C 
ATOM     31  C   UNL     1       3.522  -3.853   0.000  0.00  0.00    +0.000 C 
ATOM     32  C   UNL     1       3.522  -3.029   0.000  0.00  0.00    +0.000 C 
BRANCH  32  34
ATOM     33  O   UNL     1       2.093  -3.029   0.000  0.00  0.00    +0.000 OA
ATOM     34  C   UNL     1       2.808  -2.616   0.000  0.00  0.00    +0.000 C 
ENDBRANCH  32  34
ENDBRANCH  23  28
ENDBRANCH  18  23
ENDBRANCH   5  22
BRANCH  12  37
ATOM     35  O   UNL     1      12.145   3.600   0.000  0.00  0.00    +0.000 OA
ATOM     36  C   UNL     1      11.426   2.366   0.000  0.00  0.00    +0.000 A 
ATOM     37  C   UNL     1       9.997   2.371   0.000  0.00  0.00    +0.000 A 
ATOM     38  C   UNL     1      10.710   1.956   0.000  0.00  0.00    +0.000 A 
ATOM     39  C   UNL     1      11.429   3.191   0.000  0.00  0.00    +0.000 A 
ATOM     40  C   UNL     1      10.000   3.196   0.000  0.00  0.00    +0.000 A 
ATOM     41  C   UNL     1      10.716   3.606   0.000  0.00  0.00    +0.000 A 
BRANCH  36  42
ATOM     42  O   UNL     1      12.139   1.950   0.000  0.00  0.00    +0.000 OA
BRANCH  42  51
ATOM     43  O   UNL     1      12.858   3.185   0.000  0.00  0.00    +0.000 OA
ATOM     44  O   UNL     1      14.996   1.940   0.000  0.00  0.00    +0.000 OA
ATOM     45  O   UNL     1      15.003   3.590   0.000  0.00  0.00    +0.000 OA
ATOM     46  O   UNL     1      13.564   1.120   0.000  0.00  0.00    +0.000 OA
ATOM     47  C   UNL     1      14.284   2.355   0.000  0.00  0.00    +0.000 C 
ATOM     48  C   UNL     1      14.287   3.180   0.000  0.00  0.00    +0.000 C 
ATOM     49  C   UNL     1      13.567   1.945   0.000  0.00  0.00    +0.000 C 
ATOM     50  C   UNL     1      13.574   3.595   0.000  0.00  0.00    +0.000 C 
ATOM     51  C   UNL     1      12.854   2.360   0.000  0.00  0.00    +0.000 C 
BRANCH  50  53
ATOM     52  O   UNL     1      12.864   4.835   0.000  0.00  0.00    +0.000 OA
ATOM     53  C   UNL     1      13.577   4.420   0.000  0.00  0.00    +0.000 C 
ENDBRANCH  50  53
ENDBRANCH  42  51
ENDBRANCH  36  42
ENDBRANCH  12  37
TORSDOF 8
