REMARK  Name = 44260021
REMARK  7 active torsions:
REMARK  status: ('A' for Active; 'I' for Inactive)
REMARK    1  A    between atoms: O_2  and  C_13
REMARK    2  A    between atoms: O_2  and  C_25
REMARK    3  A    between atoms: O_3  and  C_16
REMARK    4  A    between atoms: O_7  and  C_22
REMARK    5  A    between atoms: O_8  and  C_23
REMARK    6  A    between atoms: C_12  and  C_14
REMARK    7  A    between atoms: C_25  and  C_26
REMARK                            x       y       z     vdW  Elec       q    Type
REMARK                         _______ _______ _______ _____ _____    ______ ____
ROOT
ATOM      1  O   UNL     1       5.006  -0.825   0.000  0.00  0.00    +0.000 OA
ATOM      2  O   UNL     1       3.564   1.679   0.000  0.00  0.00    +0.000 OA
ATOM      3  O   UNL     1       5.006   1.650   0.000  0.00  0.00    +0.000 OA
ATOM      4  O   UNL     1       2.094  -0.845   0.000  0.00  0.00    +0.000 OA
ATOM      5  C   UNL     1       4.292   0.412   0.000  0.00  0.00    +0.000 A 
ATOM      6  C   UNL     1       4.292  -0.412   0.000  0.00  0.00    +0.000 A 
ATOM      7  C   UNL     1       5.721  -0.412   0.000  0.00  0.00    +0.000 A 
ATOM      8  C   UNL     1       5.721   0.412   0.000  0.00  0.00    +0.000 A 
ATOM      9  C   UNL     1       5.006   0.825   0.000  0.00  0.00    +0.000 A 
ATOM     10  C   UNL     1       3.554  -0.854   0.000  0.00  0.00    +0.000 A 
ATOM     11  C   UNL     1       3.554   0.854   0.000  0.00  0.00    +0.000 A 
ATOM     12  C   UNL     1       2.807  -0.430   0.000  0.00  0.00    +0.000 A 
ATOM     13  C   UNL     1       2.807   0.430   0.000  0.00  0.00    +0.000 A 
ENDROOT
BRANCH   7  14
ATOM     14  C   UNL     1       6.435  -0.825   0.000  0.00  0.00    +0.000 A 
ATOM     15  C   UNL     1       6.435  -1.650   0.000  0.00  0.00    +0.000 A 
ATOM     16  C   UNL     1       7.150  -0.412   0.000  0.00  0.00    +0.000 A 
ATOM     17  C   UNL     1       7.150  -2.062   0.000  0.00  0.00    +0.000 A 
ATOM     18  C   UNL     1       7.864  -1.650   0.000  0.00  0.00    +0.000 A 
ATOM     19  C   UNL     1       7.864  -0.825   0.000  0.00  0.00    +0.000 A 
BRANCH  17  20
ATOM     20  O   UNL     1       7.150  -2.888   0.000  0.00  0.00    +0.000 OA
ATOM     21  C   UNL     1       7.864  -3.300   0.000  0.00  0.00    +0.000 C 
ENDBRANCH  17  20
BRANCH  18  22
ATOM     22  O   UNL     1       8.579  -2.062   0.000  0.00  0.00    +0.000 OA
ATOM     23  C   UNL     1       9.293  -1.650   0.000  0.00  0.00    +0.000 C 
ENDBRANCH  18  22
ENDBRANCH   7  14
BRANCH  10  24
ATOM     24  O   UNL     1       3.564  -1.679   0.000  0.00  0.00    +0.000 OA
ATOM     25  C   UNL     1       2.854  -2.099   0.000  0.00  0.00    +0.000 C 
ENDBRANCH  10  24
BRANCH   8  26
ATOM     26  O   UNL     1       6.435   0.825   0.000  0.00  0.00    +0.000 OA
BRANCH  26  28
ATOM     27  O   UNL     1       5.721   2.062   0.000  0.00  0.00    +0.000 OA
ATOM     28  C   UNL     1       6.435   1.650   0.000  0.00  0.00    +0.000 C 
BRANCH  28  29
ATOM     29  C   UNL     1       7.150   2.062   0.000  0.00  0.00    +0.000 C 
ATOM     30  C   UNL     1       7.864   1.650   0.000  0.00  0.00    +0.000 C 
ATOM     31  C   UNL     1       7.150   2.888   0.000  0.00  0.00    +0.000 C 
ATOM     32  C   UNL     1       6.435   3.300   0.000  0.00  0.00    +0.000 C 
ENDBRANCH  28  29
ENDBRANCH  26  28
ENDBRANCH   8  26
TORSDOF 7
