REMARK  Name = 44259125
REMARK  10 active torsions:
REMARK  status: ('A' for Active; 'I' for Inactive)
REMARK    1  A    between atoms: O_2  and  C_16
REMARK    2  A    between atoms: O_2  and  C_23
REMARK    3  A    between atoms: O_3  and  C_17
REMARK    4  A    between atoms: O_3  and  C_24
REMARK    5  A    between atoms: O_4  and  C_18
REMARK    6  A    between atoms: O_4  and  C_25
REMARK    7  A    between atoms: O_5  and  C_20
REMARK    8  A    between atoms: O_5  and  C_22
REMARK    9  A    between atoms: C_19  and  C_21
REMARK   10  A    between atoms: C_26  and  C_33
REMARK                            x       y       z     vdW  Elec       q    Type
REMARK                         _______ _______ _______ _____ _____    ______ ____
ROOT
ATOM      1  O   UNL     1       5.937  -0.570   0.000  0.00  0.00    +0.000 OA
ENDROOT
BRANCH   1   6
ATOM      2  O   UNL     1       6.651   1.493   0.000  0.00  0.00    +0.000 OA
ATOM      3  O   UNL     1       4.508   0.255   0.000  0.00  0.00    +0.000 OA
ATOM      4  O   UNL     1       3.762   1.490   0.000  0.00  0.00    +0.000 OA
ATOM      5  O   UNL     1       5.212   4.025   0.000  0.00  0.00    +0.000 OA
ATOM      6  C   UNL     1       5.937   0.255   0.000  0.00  0.00    +0.000 A 
ATOM      7  C   UNL     1       6.651   0.668   0.000  0.00  0.00    +0.000 A 
ATOM      8  C   UNL     1       5.222   0.668   0.000  0.00  0.00    +0.000 A 
ATOM      9  C   UNL     1       5.222   1.493   0.000  0.00  0.00    +0.000 A 
ATOM     10  C   UNL     1       5.937   1.905   0.000  0.00  0.00    +0.000 A 
ATOM     11  C   UNL     1       4.472   1.911   0.000  0.00  0.00    +0.000 A 
ATOM     12  C   UNL     1       5.950   2.764   0.000  0.00  0.00    +0.000 A 
ATOM     13  C   UNL     1       4.465   2.770   0.000  0.00  0.00    +0.000 A 
ATOM     14  C   UNL     1       5.209   3.200   0.000  0.00  0.00    +0.000 A 
BRANCH   7  17
ATOM     15  O   UNL     1       9.509   0.668   0.000  0.00  0.00    +0.000 OA
ATOM     16  O   UNL     1       9.509  -0.982   0.000  0.00  0.00    +0.000 OA
ATOM     17  C   UNL     1       7.366   0.255   0.000  0.00  0.00    +0.000 A 
ATOM     18  C   UNL     1       8.080   0.668   0.000  0.00  0.00    +0.000 A 
ATOM     19  C   UNL     1       7.366  -0.570   0.000  0.00  0.00    +0.000 A 
ATOM     20  C   UNL     1       8.795   0.255   0.000  0.00  0.00    +0.000 A 
ATOM     21  C   UNL     1       8.080  -0.982   0.000  0.00  0.00    +0.000 A 
ATOM     22  C   UNL     1       8.795  -0.570   0.000  0.00  0.00    +0.000 A 
ENDBRANCH   7  17
ENDBRANCH   1   6
BRANCH   1  28
ATOM     23  O   UNL     1       4.508  -0.570   0.000  0.00  0.00    +0.000 OA
ATOM     24  C   UNL     1       4.508  -2.220   0.000  0.00  0.00    +0.000 C 
ATOM     25  C   UNL     1       3.793  -1.807   0.000  0.00  0.00    +0.000 C 
ATOM     26  C   UNL     1       5.222  -1.807   0.000  0.00  0.00    +0.000 C 
ATOM     27  C   UNL     1       3.793  -0.982   0.000  0.00  0.00    +0.000 C 
ATOM     28  C   UNL     1       5.222  -0.982   0.000  0.00  0.00    +0.000 C 
BRANCH  27  30
ATOM     29  O   UNL     1       3.079   0.255   0.000  0.00  0.00    +0.000 OA
ATOM     30  C   UNL     1       3.079  -0.570   0.000  0.00  0.00    +0.000 C 
ENDBRANCH  27  30
BRANCH  24  31
ATOM     31  O   UNL     1       4.508  -3.045   0.000  0.00  0.00    +0.000 OA
BRANCH  31  33
ATOM     32  O   UNL     1       3.079  -3.045   0.000  0.00  0.00    +0.000 OA
ATOM     33  C   UNL     1       3.793  -3.457   0.000  0.00  0.00    +0.000 C 
ATOM     34  C   UNL     1       3.793  -4.282   0.000  0.00  0.00    +0.000 C 
ENDBRANCH  31  33
ENDBRANCH  24  31
BRANCH  25  35
ATOM     35  O   UNL     1       3.079  -2.220   0.000  0.00  0.00    +0.000 OA
BRANCH  35  37
ATOM     36  O   UNL     1       2.364  -0.982   0.000  0.00  0.00    +0.000 OA
ATOM     37  C   UNL     1       2.364  -1.807   0.000  0.00  0.00    +0.000 C 
ATOM     38  C   UNL     1       1.650  -2.220   0.000  0.00  0.00    +0.000 C 
ENDBRANCH  35  37
ENDBRANCH  25  35
BRANCH  26  39
ATOM     39  O   UNL     1       5.937  -2.220   0.000  0.00  0.00    +0.000 OA
BRANCH  39  41
ATOM     40  O   UNL     1       5.222  -3.457   0.000  0.00  0.00    +0.000 OA
ATOM     41  C   UNL     1       5.937  -3.045   0.000  0.00  0.00    +0.000 C 
ATOM     42  C   UNL     1       6.651  -3.457   0.000  0.00  0.00    +0.000 C 
ENDBRANCH  39  41
ENDBRANCH  26  39
ENDBRANCH   1  28
TORSDOF 10
