REMARK  Name = 44257935
REMARK  5 active torsions:
REMARK  status: ('A' for Active; 'I' for Inactive)
REMARK    1  A    between atoms: O_2  and  C_17
REMARK    2  A    between atoms: O_2  and  C_22
REMARK    3  A    between atoms: C_21  and  C_27
REMARK    4  A    between atoms: C_26  and  C_28
REMARK    5  A    between atoms: C_36  and  C_37
REMARK                            x       y       z     vdW  Elec       q    Type
REMARK                         _______ _______ _______ _____ _____    ______ ____
ROOT
ATOM      1  O   UNL     1       6.380  -0.761   0.000  0.00  0.00    +0.000 OA
ATOM      2  O   UNL     1       4.236  -1.174   0.000  0.00  0.00    +0.000 OA
ATOM      3  O   UNL     1       4.236   0.476   0.000  0.00  0.00    +0.000 OA
ATOM      4  O   UNL     1       5.665   1.301   0.000  0.00  0.00    +0.000 OA
ATOM      5  C   UNL     1       5.665  -1.174   0.000  0.00  0.00    +0.000 C 
ATOM      6  C   UNL     1       4.951  -0.761   0.000  0.00  0.00    +0.000 C 
ATOM      7  C   UNL     1       4.951   0.064   0.000  0.00  0.00    +0.000 C 
ATOM      8  C   UNL     1       5.665   0.476   0.000  0.00  0.00    +0.000 C 
ATOM      9  C   UNL     1       6.380   0.064   0.000  0.00  0.00    +0.000 C 
ENDROOT
BRANCH   9  14
ATOM     10  O   UNL     1       6.380   1.714   0.000  0.00  0.00    +0.000 OA
ATOM     11  O   UNL     1       7.809  -0.761   0.000  0.00  0.00    +0.000 OA
ATOM     12  O   UNL     1       9.274   1.720   0.000  0.00  0.00    +0.000 OA
ATOM     13  O   UNL     1       7.076   2.977   0.000  0.00  0.00    +0.000 OA
ATOM     14  C   UNL     1       7.094   0.476   0.000  0.00  0.00    +0.000 A 
ATOM     15  C   UNL     1       7.094   1.301   0.000  0.00  0.00    +0.000 A 
ATOM     16  C   UNL     1       7.809   0.064   0.000  0.00  0.00    +0.000 A 
ATOM     17  C   UNL     1       7.809   1.714   0.000  0.00  0.00    +0.000 A 
ATOM     18  C   UNL     1       8.523   0.476   0.000  0.00  0.00    +0.000 A 
ATOM     19  C   UNL     1       8.523   1.301   0.000  0.00  0.00    +0.000 A 
ATOM     20  C   UNL     1       7.795   2.573   0.000  0.00  0.00    +0.000 A 
ATOM     21  C   UNL     1       8.536   3.009   0.000  0.00  0.00    +0.000 A 
ATOM     22  C   UNL     1       9.281   2.579   0.000  0.00  0.00    +0.000 A 
BRANCH  22  25
ATOM     23  O   UNL     1      12.139   2.568   0.000  0.00  0.00    +0.000 OA
ATOM     24  O   UNL     1      12.145   4.218   0.000  0.00  0.00    +0.000 OA
ATOM     25  C   UNL     1       9.997   2.989   0.000  0.00  0.00    +0.000 A 
ATOM     26  C   UNL     1      10.710   2.573   0.000  0.00  0.00    +0.000 A 
ATOM     27  C   UNL     1      10.000   3.814   0.000  0.00  0.00    +0.000 A 
ATOM     28  C   UNL     1      11.426   2.983   0.000  0.00  0.00    +0.000 A 
ATOM     29  C   UNL     1      10.716   4.223   0.000  0.00  0.00    +0.000 A 
ATOM     30  C   UNL     1      11.429   3.808   0.000  0.00  0.00    +0.000 A 
ENDBRANCH  22  25
ENDBRANCH   9  14
BRANCH   5  31
ATOM     31  O   UNL     1       5.665  -1.999   0.000  0.00  0.00    +0.000 OA
BRANCH  31  36
ATOM     32  O   UNL     1       4.236  -1.999   0.000  0.00  0.00    +0.000 OA
ATOM     33  O   UNL     1       5.665  -3.649   0.000  0.00  0.00    +0.000 OA
ATOM     34  O   UNL     1       4.236  -4.474   0.000  0.00  0.00    +0.000 OA
ATOM     35  O   UNL     1       2.808  -3.649   0.000  0.00  0.00    +0.000 OA
ATOM     36  C   UNL     1       4.951  -2.411   0.000  0.00  0.00    +0.000 C 
ATOM     37  C   UNL     1       4.951  -3.236   0.000  0.00  0.00    +0.000 C 
ATOM     38  C   UNL     1       4.236  -3.649   0.000  0.00  0.00    +0.000 C 
ATOM     39  C   UNL     1       3.522  -3.236   0.000  0.00  0.00    +0.000 C 
ATOM     40  C   UNL     1       3.522  -2.411   0.000  0.00  0.00    +0.000 C 
BRANCH  40  42
ATOM     41  O   UNL     1       2.093  -2.411   0.000  0.00  0.00    +0.000 OA
ATOM     42  C   UNL     1       2.808  -1.999   0.000  0.00  0.00    +0.000 C 
ENDBRANCH  40  42
ENDBRANCH  31  36
ENDBRANCH   5  31
TORSDOF 5
