REMARK  Name = 131834261
REMARK  3 active torsions:
REMARK  status: ('A' for Active; 'I' for Inactive)
REMARK    1  A    between atoms: S_1  and  C_19
REMARK    2  A    between atoms: O_5  and  C_23
REMARK    3  A    between atoms: C_10  and  C_14
REMARK                            x       y       z     vdW  Elec       q    Type
REMARK                         _______ _______ _______ _____ _____    ______ ____
ROOT
ATOM      1  O   UNL     1       5.720  -0.093   0.000  0.00  0.00    +0.000 OA
ATOM      2  O   UNL     1       7.149   1.557   0.000  0.00  0.00    +0.000 OA
ATOM      3  O   UNL     1       4.278   2.411   0.000  0.00  0.00    +0.000 OA
ATOM      4  C   UNL     1       6.435   1.145   0.000  0.00  0.00    +0.000 C 
ATOM      5  C   UNL     1       6.435   0.320   0.000  0.00  0.00    +0.000 C 
ATOM      6  C   UNL     1       5.720   1.557   0.000  0.00  0.00    +0.000 C 
ATOM      7  C   UNL     1       5.006   1.145   0.000  0.00  0.00    +0.000 A 
ATOM      8  C   UNL     1       5.006   0.320   0.000  0.00  0.00    +0.000 A 
ATOM      9  C   UNL     1       4.268   1.586   0.000  0.00  0.00    +0.000 A 
ATOM     10  C   UNL     1       4.268  -0.121   0.000  0.00  0.00    +0.000 A 
ATOM     11  C   UNL     1       3.521   0.303   0.000  0.00  0.00    +0.000 A 
ATOM     12  C   UNL     1       3.521   1.162   0.000  0.00  0.00    +0.000 A 
ENDROOT
BRANCH   5  14
ATOM     13  O   UNL     1       7.864  -2.155   0.000  0.00  0.00    +0.000 OA
ATOM     14  C   UNL     1       7.149  -0.093   0.000  0.00  0.00    +0.000 A 
ATOM     15  C   UNL     1       7.149  -0.918   0.000  0.00  0.00    +0.000 A 
ATOM     16  C   UNL     1       7.864   0.320   0.000  0.00  0.00    +0.000 A 
ATOM     17  C   UNL     1       7.864  -1.330   0.000  0.00  0.00    +0.000 A 
ATOM     18  C   UNL     1       8.578  -0.093   0.000  0.00  0.00    +0.000 A 
ATOM     19  C   UNL     1       8.578  -0.918   0.000  0.00  0.00    +0.000 A 
BRANCH  19  20
ATOM     20  O   UNL     1       9.293  -1.330   0.000  0.00  0.00    +0.000 OA
ATOM     21  C   UNL     1      10.007  -0.918   0.000  0.00  0.00    +0.000 C 
ENDBRANCH  19  20
ENDBRANCH   5  14
BRANCH  11  22
ATOM     22  S   UNL     1       2.808  -0.113   0.000  0.00  0.00    +0.000 S 
ATOM     23  O   UNL     1       2.092   0.297   0.000  0.00  0.00    +0.000 OA
ATOM     24  O   UNL     1       2.811  -0.938   0.000  0.00  0.00    +0.000 OA
ENDBRANCH  11  22
TORSDOF 3
