REMARK  Name = 42608125
REMARK  4 active torsions:
REMARK  status: ('A' for Active; 'I' for Inactive)
REMARK    1  A    between atoms: O_2  and  C_14
REMARK    2  A    between atoms: O_4  and  C_16
REMARK    3  A    between atoms: O_6  and  C_17
REMARK    4  A    between atoms: C_8  and  C_13
REMARK                            x       y       z     vdW  Elec       q    Type
REMARK                         _______ _______ _______ _____ _____    ______ ____
ROOT
ATOM      1  O   UNL     1       5.245  -0.761   0.000  0.00  0.00    +0.000 OA
ATOM      2  O   UNL     1       5.236   1.771   0.000  0.00  0.00    +0.000 OA
ATOM      3  O   UNL     1       3.793   1.742   0.000  0.00  0.00    +0.000 OA
ATOM      4  C   UNL     1       5.993  -0.337   0.000  0.00  0.00    +0.000 C 
ATOM      5  C   UNL     1       5.993   0.522   0.000  0.00  0.00    +0.000 C 
ATOM      6  C   UNL     1       4.508   0.505   0.000  0.00  0.00    +0.000 A 
ATOM      7  C   UNL     1       4.508  -0.320   0.000  0.00  0.00    +0.000 A 
ATOM      8  C   UNL     1       5.245   0.946   0.000  0.00  0.00    +0.000 C 
ATOM      9  C   UNL     1       3.793  -0.733   0.000  0.00  0.00    +0.000 A 
ATOM     10  C   UNL     1       3.793   0.917   0.000  0.00  0.00    +0.000 A 
ATOM     11  C   UNL     1       3.079  -0.320   0.000  0.00  0.00    +0.000 A 
ATOM     12  C   UNL     1       3.079   0.505   0.000  0.00  0.00    +0.000 A 
ENDROOT
BRANCH   4  14
ATOM     13  O   UNL     1       8.844  -1.998   0.000  0.00  0.00    +0.000 OA
ATOM     14  C   UNL     1       6.706  -0.752   0.000  0.00  0.00    +0.000 A 
ATOM     15  C   UNL     1       7.422  -0.343   0.000  0.00  0.00    +0.000 A 
ATOM     16  C   UNL     1       6.703  -1.577   0.000  0.00  0.00    +0.000 A 
ATOM     17  C   UNL     1       8.135  -0.758   0.000  0.00  0.00    +0.000 A 
ATOM     18  C   UNL     1       7.415  -1.993   0.000  0.00  0.00    +0.000 A 
ATOM     19  C   UNL     1       8.132  -1.583   0.000  0.00  0.00    +0.000 A 
ENDBRANCH   4  14
BRANCH   9  20
ATOM     20  O   UNL     1       3.793  -1.558   0.000  0.00  0.00    +0.000 OA
ATOM     21  C   UNL     1       3.079  -1.970   0.000  0.00  0.00    +0.000 C 
ENDBRANCH   9  20
BRANCH  11  22
ATOM     22  O   UNL     1       2.364  -0.733   0.000  0.00  0.00    +0.000 OA
ATOM     23  C   UNL     1       1.650  -0.320   0.000  0.00  0.00    +0.000 C 
ENDBRANCH  11  22
BRANCH  12  24
ATOM     24  O   UNL     1       2.364   0.917   0.000  0.00  0.00    +0.000 OA
ATOM     25  C   UNL     1       1.650   0.505   0.000  0.00  0.00    +0.000 C 
ENDBRANCH  12  24
TORSDOF 4
