REMARK  Name = 74978435
REMARK  10 active torsions:
REMARK  status: ('A' for Active; 'I' for Inactive)
REMARK    1  A    between atoms: O_2  and  C_22
REMARK    2  A    between atoms: O_2  and  C_26
REMARK    3  A    between atoms: O_6  and  C_25
REMARK    4  A    between atoms: O_6  and  C_29
REMARK    5  A    between atoms: O_13  and  C_35
REMARK    6  A    between atoms: O_14  and  C_40
REMARK    7  A    between atoms: O_15  and  C_41
REMARK    8  A    between atoms: O_16  and  C_43
REMARK    9  A    between atoms: C_17  and  C_26
REMARK   10  A    between atoms: C_30  and  C_34
REMARK                            x       y       z     vdW  Elec       q    Type
REMARK                         _______ _______ _______ _____ _____    ______ ____
ROOT
ATOM      1  O   UNL     1       5.278   2.603   0.000  0.00  0.00    +0.000 OA
ATOM      2  O   UNL     1       5.278   0.128   0.000  0.00  0.00    +0.000 OA
ATOM      3  C   UNL     1       5.993   1.365   0.000  0.00  0.00    +0.000 A 
ATOM      4  C   UNL     1       5.993   2.190   0.000  0.00  0.00    +0.000 A 
ATOM      5  C   UNL     1       5.278   0.953   0.000  0.00  0.00    +0.000 A 
ATOM      6  C   UNL     1       4.564   1.365   0.000  0.00  0.00    +0.000 A 
ATOM      7  C   UNL     1       4.564   2.190   0.000  0.00  0.00    +0.000 A 
ATOM      8  C   UNL     1       3.826   0.924   0.000  0.00  0.00    +0.000 A 
ATOM      9  C   UNL     1       3.826   2.631   0.000  0.00  0.00    +0.000 A 
ATOM     10  C   UNL     1       3.079   1.348   0.000  0.00  0.00    +0.000 A 
ATOM     11  C   UNL     1       3.079   2.208   0.000  0.00  0.00    +0.000 A 
ENDROOT
BRANCH   4  12
ATOM     12  C   UNL     1       6.707   2.603   0.000  0.00  0.00    +0.000 A 
ATOM     13  C   UNL     1       6.707   3.428   0.000  0.00  0.00    +0.000 A 
ATOM     14  C   UNL     1       7.422   2.190   0.000  0.00  0.00    +0.000 A 
ATOM     15  C   UNL     1       7.422   3.840   0.000  0.00  0.00    +0.000 A 
ATOM     16  C   UNL     1       8.136   2.603   0.000  0.00  0.00    +0.000 A 
ATOM     17  C   UNL     1       8.136   3.428   0.000  0.00  0.00    +0.000 A 
BRANCH  15  18
ATOM     18  O   UNL     1       7.422   4.665   0.000  0.00  0.00    +0.000 OA
ATOM     19  C   UNL     1       6.707   5.078   0.000  0.00  0.00    +0.000 C 
ENDBRANCH  15  18
BRANCH  17  20
ATOM     20  O   UNL     1       8.851   3.840   0.000  0.00  0.00    +0.000 OA
ATOM     21  C   UNL     1       9.565   3.428   0.000  0.00  0.00    +0.000 C 
ENDBRANCH  17  20
ENDBRANCH   4  12
BRANCH   8  22
ATOM     22  O   UNL     1       3.836   0.099   0.000  0.00  0.00    +0.000 OA
ATOM     23  C   UNL     1       3.126  -0.321   0.000  0.00  0.00    +0.000 C 
ENDBRANCH   8  22
BRANCH  11  24
ATOM     24  O   UNL     1       2.366   2.623   0.000  0.00  0.00    +0.000 OA
ATOM     25  C   UNL     1       1.650   2.213   0.000  0.00  0.00    +0.000 C 
ENDBRANCH  11  24
BRANCH   3  26
ATOM     26  O   UNL     1       6.707   0.953   0.000  0.00  0.00    +0.000 OA
BRANCH  26  35
ATOM     27  O   UNL     1       5.993  -0.285   0.000  0.00  0.00    +0.000 OA
ATOM     28  O   UNL     1       6.707  -2.347   0.000  0.00  0.00    +0.000 OA
ATOM     29  O   UNL     1       8.136  -1.522   0.000  0.00  0.00    +0.000 OA
ATOM     30  O   UNL     1       8.136   0.128   0.000  0.00  0.00    +0.000 OA
ATOM     31  C   UNL     1       5.993  -1.110   0.000  0.00  0.00    +0.000 C 
ATOM     32  C   UNL     1       6.707  -1.522   0.000  0.00  0.00    +0.000 C 
ATOM     33  C   UNL     1       7.422  -1.110   0.000  0.00  0.00    +0.000 C 
ATOM     34  C   UNL     1       7.422  -0.285   0.000  0.00  0.00    +0.000 C 
ATOM     35  C   UNL     1       6.707   0.128   0.000  0.00  0.00    +0.000 C 
BRANCH  31  36
ATOM     36  C   UNL     1       5.278  -1.522   0.000  0.00  0.00    +0.000 C 
BRANCH  36  37
ATOM     37  O   UNL     1       5.278  -2.347   0.000  0.00  0.00    +0.000 OA
BRANCH  37  43
ATOM     38  O   UNL     1       3.849  -2.347   0.000  0.00  0.00    +0.000 OA
ATOM     39  O   UNL     1       5.278  -3.997   0.000  0.00  0.00    +0.000 OA
ATOM     40  O   UNL     1       3.849  -4.822   0.000  0.00  0.00    +0.000 OA
ATOM     41  O   UNL     1       2.421  -3.997   0.000  0.00  0.00    +0.000 OA
ATOM     42  C   UNL     1       4.564  -3.585   0.000  0.00  0.00    +0.000 C 
ATOM     43  C   UNL     1       4.564  -2.760   0.000  0.00  0.00    +0.000 C 
ATOM     44  C   UNL     1       3.849  -3.997   0.000  0.00  0.00    +0.000 C 
ATOM     45  C   UNL     1       3.135  -3.585   0.000  0.00  0.00    +0.000 C 
ATOM     46  C   UNL     1       3.135  -2.760   0.000  0.00  0.00    +0.000 C 
ATOM     47  C   UNL     1       2.421  -2.347   0.000  0.00  0.00    +0.000 C 
ENDBRANCH  37  43
ENDBRANCH  36  37
ENDBRANCH  31  36
ENDBRANCH  26  35
ENDBRANCH   3  26
TORSDOF 10
