REMARK  Name = 42608018
REMARK  9 active torsions:
REMARK  status: ('A' for Active; 'I' for Inactive)
REMARK    1  A    between atoms: O_2  and  C_21
REMARK    2  A    between atoms: O_2  and  C_25
REMARK    3  A    between atoms: O_6  and  C_24
REMARK    4  A    between atoms: O_6  and  C_28
REMARK    5  A    between atoms: O_12  and  C_33
REMARK    6  A    between atoms: O_14  and  C_39
REMARK    7  A    between atoms: O_15  and  C_41
REMARK    8  A    between atoms: C_16  and  C_25
REMARK    9  A    between atoms: C_29  and  C_30
REMARK                            x       y       z     vdW  Elec       q    Type
REMARK                         _______ _______ _______ _____ _____    ______ ____
ROOT
ATOM      1  C   UNL     1       7.402   0.717   0.000  0.00  0.00    +0.000 A 
ATOM      2  C   UNL     1       5.973   1.542   0.000  0.00  0.00    +0.000 A 
ATOM      3  C   UNL     1       6.688   0.304   0.000  0.00  0.00    +0.000 A 
ATOM      4  C   UNL     1       7.402   1.542   0.000  0.00  0.00    +0.000 A 
ATOM      5  C   UNL     1       5.973   0.717   0.000  0.00  0.00    +0.000 A 
ATOM      6  C   UNL     1       6.688   1.954   0.000  0.00  0.00    +0.000 A 
ENDROOT
BRANCH   2   9
ATOM      7  O   UNL     1       5.259   2.779   0.000  0.00  0.00    +0.000 OA
ATOM      8  O   UNL     1       3.115   1.542   0.000  0.00  0.00    +0.000 OA
ATOM      9  C   UNL     1       5.259   1.954   0.000  0.00  0.00    +0.000 C 
ATOM     10  C   UNL     1       4.544   1.542   0.000  0.00  0.00    +0.000 C 
ATOM     11  C   UNL     1       3.830   1.954   0.000  0.00  0.00    +0.000 C 
ATOM     12  C   UNL     1       3.830   2.779   0.000  0.00  0.00    +0.000 A 
ATOM     13  C   UNL     1       4.544   3.192   0.000  0.00  0.00    +0.000 A 
ATOM     14  C   UNL     1       3.079   3.197   0.000  0.00  0.00    +0.000 A 
ATOM     15  C   UNL     1       4.557   4.051   0.000  0.00  0.00    +0.000 A 
ATOM     16  C   UNL     1       3.817   4.486   0.000  0.00  0.00    +0.000 A 
ATOM     17  C   UNL     1       3.072   4.057   0.000  0.00  0.00    +0.000 A 
BRANCH  14  18
ATOM     18  O   UNL     1       2.369   2.777   0.000  0.00  0.00    +0.000 OA
ATOM     19  C   UNL     1       1.650   3.181   0.000  0.00  0.00    +0.000 C 
ENDBRANCH  14  18
BRANCH  16  20
ATOM     20  O   UNL     1       3.820   5.311   0.000  0.00  0.00    +0.000 OA
ATOM     21  C   UNL     1       3.107   5.727   0.000  0.00  0.00    +0.000 C 
ENDBRANCH  16  20
ENDBRANCH   2   9
BRANCH   5  22
ATOM     22  O   UNL     1       5.259   0.304   0.000  0.00  0.00    +0.000 OA
ATOM     23  C   UNL     1       5.259  -0.521   0.000  0.00  0.00    +0.000 C 
ENDBRANCH   5  22
BRANCH   1  24
ATOM     24  O   UNL     1       8.116   0.304   0.000  0.00  0.00    +0.000 OA
BRANCH  24  33
ATOM     25  O   UNL     1       7.402  -0.933   0.000  0.00  0.00    +0.000 OA
ATOM     26  O   UNL     1       8.116  -2.996   0.000  0.00  0.00    +0.000 OA
ATOM     27  O   UNL     1       9.545  -2.171   0.000  0.00  0.00    +0.000 OA
ATOM     28  O   UNL     1       9.545  -0.521   0.000  0.00  0.00    +0.000 OA
ATOM     29  C   UNL     1       7.402  -1.758   0.000  0.00  0.00    +0.000 C 
ATOM     30  C   UNL     1       8.116  -2.171   0.000  0.00  0.00    +0.000 C 
ATOM     31  C   UNL     1       8.831  -1.758   0.000  0.00  0.00    +0.000 C 
ATOM     32  C   UNL     1       8.831  -0.933   0.000  0.00  0.00    +0.000 C 
ATOM     33  C   UNL     1       8.116  -0.521   0.000  0.00  0.00    +0.000 C 
BRANCH  29  34
ATOM     34  C   UNL     1       6.688  -2.171   0.000  0.00  0.00    +0.000 C 
BRANCH  34  35
ATOM     35  O   UNL     1       6.688  -2.996   0.000  0.00  0.00    +0.000 OA
BRANCH  35  41
ATOM     36  O   UNL     1       5.259  -2.996   0.000  0.00  0.00    +0.000 OA
ATOM     37  O   UNL     1       6.688  -4.646   0.000  0.00  0.00    +0.000 OA
ATOM     38  O   UNL     1       5.259  -5.471   0.000  0.00  0.00    +0.000 OA
ATOM     39  O   UNL     1       3.830  -4.646   0.000  0.00  0.00    +0.000 OA
ATOM     40  C   UNL     1       5.973  -4.233   0.000  0.00  0.00    +0.000 C 
ATOM     41  C   UNL     1       5.973  -3.408   0.000  0.00  0.00    +0.000 C 
ATOM     42  C   UNL     1       5.259  -4.646   0.000  0.00  0.00    +0.000 C 
ATOM     43  C   UNL     1       4.544  -4.233   0.000  0.00  0.00    +0.000 C 
ATOM     44  C   UNL     1       4.544  -3.408   0.000  0.00  0.00    +0.000 C 
ATOM     45  C   UNL     1       3.830  -2.996   0.000  0.00  0.00    +0.000 C 
ENDBRANCH  35  41
ENDBRANCH  34  35
ENDBRANCH  29  34
ENDBRANCH  24  33
ENDBRANCH   1  24
TORSDOF 9
