REMARK  Name = 44258456
REMARK  12 active torsions:
REMARK  status: ('A' for Active; 'I' for Inactive)
REMARK    1  A    between atoms: O_1  and  C_17
REMARK    2  A    between atoms: O_1  and  C_21
REMARK    3  A    between atoms: O_6  and  C_23
REMARK    4  A    between atoms: O_6  and  C_30
REMARK    5  A    between atoms: O_10  and  C_28
REMARK    6  A    between atoms: O_10  and  C_34
REMARK    7  A    between atoms: O_11  and  C_32
REMARK    8  A    between atoms: O_13  and  C_35
REMARK    9  A    between atoms: O_16  and  C_48
REMARK   10  A    between atoms: C_20  and  C_27
REMARK   11  A    between atoms: C_26  and  C_28
REMARK   12  A    between atoms: C_40  and  C_42
REMARK                            x       y       z     vdW  Elec       q    Type
REMARK                         _______ _______ _______ _____ _____    ______ ____
ROOT
ATOM      1  O   UNL     1       6.651   0.320   0.000  0.00  0.00    +0.000 OA
ATOM      2  O   UNL     1       5.222  -1.330   0.000  0.00  0.00    +0.000 OA
ATOM      3  O   UNL     1       8.080  -1.330   0.000  0.00  0.00    +0.000 OA
ATOM      4  C   UNL     1       6.651  -1.330   0.000  0.00  0.00    +0.000 C 
ATOM      5  C   UNL     1       5.937  -0.917   0.000  0.00  0.00    +0.000 C 
ATOM      6  C   UNL     1       7.366  -0.917   0.000  0.00  0.00    +0.000 C 
ATOM      7  C   UNL     1       5.937  -0.092   0.000  0.00  0.00    +0.000 C 
ATOM      8  C   UNL     1       7.366  -0.092   0.000  0.00  0.00    +0.000 C 
ENDROOT
BRANCH   7   9
ATOM      9  C   UNL     1       5.222   0.320   0.000  0.00  0.00    +0.000 C 
ATOM     10  C   UNL     1       5.222   1.145   0.000  0.00  0.00    +0.000 C 
ENDBRANCH   7   9
BRANCH   4  11
ATOM     11  O   UNL     1       6.651  -2.155   0.000  0.00  0.00    +0.000 OA
BRANCH  11  16
ATOM     12  O   UNL     1       5.222  -2.155   0.000  0.00  0.00    +0.000 OA
ATOM     13  O   UNL     1       6.651  -3.805   0.000  0.00  0.00    +0.000 OA
ATOM     14  O   UNL     1       5.222  -4.630   0.000  0.00  0.00    +0.000 OA
ATOM     15  O   UNL     1       3.793  -3.805   0.000  0.00  0.00    +0.000 OA
ATOM     16  C   UNL     1       5.937  -2.567   0.000  0.00  0.00    +0.000 C 
ATOM     17  C   UNL     1       5.937  -3.393   0.000  0.00  0.00    +0.000 C 
ATOM     18  C   UNL     1       5.222  -3.805   0.000  0.00  0.00    +0.000 C 
ATOM     19  C   UNL     1       4.508  -3.393   0.000  0.00  0.00    +0.000 C 
ATOM     20  C   UNL     1       4.508  -2.567   0.000  0.00  0.00    +0.000 C 
BRANCH  20  21
ATOM     21  C   UNL     1       3.793  -2.155   0.000  0.00  0.00    +0.000 C 
BRANCH  21  22
ATOM     22  O   UNL     1       3.079  -2.567   0.000  0.00  0.00    +0.000 OA
BRANCH  22  24
ATOM     23  O   UNL     1       2.364  -1.330   0.000  0.00  0.00    +0.000 OA
ATOM     24  C   UNL     1       2.364  -2.155   0.000  0.00  0.00    +0.000 C 
ATOM     25  C   UNL     1       1.650  -2.567   0.000  0.00  0.00    +0.000 C 
ENDBRANCH  22  24
ENDBRANCH  21  22
ENDBRANCH  20  21
ENDBRANCH  11  16
ENDBRANCH   4  11
BRANCH   8  26
ATOM     26  O   UNL     1       8.080   0.320   0.000  0.00  0.00    +0.000 OA
BRANCH  26  29
ATOM     27  O   UNL     1       9.532   2.824   0.000  0.00  0.00    +0.000 OA
ATOM     28  O   UNL     1       9.523   0.291   0.000  0.00  0.00    +0.000 OA
ATOM     29  C   UNL     1       8.080   1.145   0.000  0.00  0.00    +0.000 A 
ATOM     30  C   UNL     1       8.795   1.558   0.000  0.00  0.00    +0.000 A 
ATOM     31  C   UNL     1       7.366   1.558   0.000  0.00  0.00    +0.000 A 
ATOM     32  C   UNL     1       8.795   2.382   0.000  0.00  0.00    +0.000 A 
ATOM     33  C   UNL     1       7.366   2.382   0.000  0.00  0.00    +0.000 A 
ATOM     34  C   UNL     1       9.532   1.117   0.000  0.00  0.00    +0.000 A 
ATOM     35  C   UNL     1       8.080   2.795   0.000  0.00  0.00    +0.000 A 
ATOM     36  C   UNL     1      10.280   1.540   0.000  0.00  0.00    +0.000 A 
ATOM     37  C   UNL     1      10.280   2.400   0.000  0.00  0.00    +0.000 A 
BRANCH  37  38
ATOM     38  C   UNL     1      10.993   2.815   0.000  0.00  0.00    +0.000 A 
ATOM     39  C   UNL     1      10.989   3.640   0.000  0.00  0.00    +0.000 A 
ATOM     40  C   UNL     1      11.709   2.405   0.000  0.00  0.00    +0.000 A 
ATOM     41  C   UNL     1      11.702   4.055   0.000  0.00  0.00    +0.000 A 
ATOM     42  C   UNL     1      12.421   2.821   0.000  0.00  0.00    +0.000 A 
ATOM     43  C   UNL     1      12.418   3.646   0.000  0.00  0.00    +0.000 A 
BRANCH  43  44
ATOM     44  O   UNL     1      13.131   4.061   0.000  0.00  0.00    +0.000 OA
ATOM     45  C   UNL     1      13.128   4.886   0.000  0.00  0.00    +0.000 C 
ENDBRANCH  43  44
ENDBRANCH  37  38
BRANCH  31  46
ATOM     46  O   UNL     1       6.651   1.145   0.000  0.00  0.00    +0.000 OA
ATOM     47  C   UNL     1       5.937   1.558   0.000  0.00  0.00    +0.000 C 
ENDBRANCH  31  46
BRANCH  33  48
ATOM     48  O   UNL     1       6.651   2.795   0.000  0.00  0.00    +0.000 OA
ATOM     49  C   UNL     1       6.651   3.620   0.000  0.00  0.00    +0.000 C 
ENDBRANCH  33  48
ENDBRANCH  26  29
ENDBRANCH   8  26
TORSDOF 12
