REMARK  Name = 44258963
REMARK  11 active torsions:
REMARK  status: ('A' for Active; 'I' for Inactive)
REMARK    1  A    between atoms: O_2  and  C_15
REMARK    2  A    between atoms: O_2  and  C_22
REMARK    3  A    between atoms: O_3  and  C_16
REMARK    4  A    between atoms: O_3  and  C_23
REMARK    5  A    between atoms: O_4  and  C_17
REMARK    6  A    between atoms: O_4  and  C_24
REMARK    7  A    between atoms: O_5  and  C_19
REMARK    8  A    between atoms: O_5  and  C_21
REMARK    9  A    between atoms: C_23  and  C_30
REMARK   10  A    between atoms: C_25  and  C_32
REMARK   11  A    between atoms: C_35  and  C_40
REMARK                            x       y       z     vdW  Elec       q    Type
REMARK                         _______ _______ _______ _____ _____    ______ ____
ROOT
ATOM      1  O   UNL     1       6.651   0.511   0.000  0.00  0.00    +0.000 OA
ATOM      2  C   UNL     1       6.651  -1.139   0.000  0.00  0.00    +0.000 C 
ATOM      3  C   UNL     1       5.937  -0.727   0.000  0.00  0.00    +0.000 C 
ATOM      4  C   UNL     1       7.366  -0.727   0.000  0.00  0.00    +0.000 C 
ATOM      5  C   UNL     1       5.937   0.098   0.000  0.00  0.00    +0.000 C 
ATOM      6  C   UNL     1       7.366   0.098   0.000  0.00  0.00    +0.000 C 
ATOM      7  C   UNL     1       5.222   0.511   0.000  0.00  0.00    +0.000 C 
ENDROOT
BRANCH   2   8
ATOM      8  O   UNL     1       6.651  -1.964   0.000  0.00  0.00    +0.000 OA
BRANCH   8  10
ATOM      9  O   UNL     1       8.080  -1.964   0.000  0.00  0.00    +0.000 OA
ATOM     10  C   UNL     1       7.366  -2.377   0.000  0.00  0.00    +0.000 C 
ATOM     11  C   UNL     1       7.366  -3.202   0.000  0.00  0.00    +0.000 C 
ENDBRANCH   8  10
ENDBRANCH   2   8
BRANCH   3  12
ATOM     12  O   UNL     1       5.222  -1.139   0.000  0.00  0.00    +0.000 OA
BRANCH  12  14
ATOM     13  O   UNL     1       5.937  -2.377   0.000  0.00  0.00    +0.000 OA
ATOM     14  C   UNL     1       5.222  -1.964   0.000  0.00  0.00    +0.000 C 
BRANCH  14  15
ATOM     15  C   UNL     1       4.508  -2.377   0.000  0.00  0.00    +0.000 C 
ATOM     16  C   UNL     1       4.508  -3.202   0.000  0.00  0.00    +0.000 C 
BRANCH  16  18
ATOM     17  O   UNL     1       1.650  -4.852   0.000  0.00  0.00    +0.000 OA
ATOM     18  C   UNL     1       3.793  -3.614   0.000  0.00  0.00    +0.000 A 
ATOM     19  C   UNL     1       3.793  -4.439   0.000  0.00  0.00    +0.000 A 
ATOM     20  C   UNL     1       3.079  -3.202   0.000  0.00  0.00    +0.000 A 
ATOM     21  C   UNL     1       3.079  -4.852   0.000  0.00  0.00    +0.000 A 
ATOM     22  C   UNL     1       2.364  -3.614   0.000  0.00  0.00    +0.000 A 
ATOM     23  C   UNL     1       2.364  -4.439   0.000  0.00  0.00    +0.000 A 
ENDBRANCH  16  18
ENDBRANCH  14  15
ENDBRANCH  12  14
ENDBRANCH   3  12
BRANCH   4  24
ATOM     24  O   UNL     1       8.080  -1.139   0.000  0.00  0.00    +0.000 OA
BRANCH  24  26
ATOM     25  O   UNL     1       8.795   0.098   0.000  0.00  0.00    +0.000 OA
ATOM     26  C   UNL     1       8.795  -0.727   0.000  0.00  0.00    +0.000 C 
ATOM     27  C   UNL     1       9.509  -1.139   0.000  0.00  0.00    +0.000 C 
ENDBRANCH  24  26
ENDBRANCH   4  24
BRANCH   6  28
ATOM     28  O   UNL     1       8.080   0.511   0.000  0.00  0.00    +0.000 OA
BRANCH  28  33
ATOM     29  O   UNL     1       8.795   2.573   0.000  0.00  0.00    +0.000 OA
ATOM     30  O   UNL     1       6.651   1.336   0.000  0.00  0.00    +0.000 OA
ATOM     31  O   UNL     1       5.905   2.571   0.000  0.00  0.00    +0.000 OA
ATOM     32  O   UNL     1       7.356   5.106   0.000  0.00  0.00    +0.000 OA
ATOM     33  C   UNL     1       8.080   1.336   0.000  0.00  0.00    +0.000 A 
ATOM     34  C   UNL     1       8.795   1.748   0.000  0.00  0.00    +0.000 A 
ATOM     35  C   UNL     1       7.366   1.748   0.000  0.00  0.00    +0.000 A 
ATOM     36  C   UNL     1       7.366   2.573   0.000  0.00  0.00    +0.000 A 
ATOM     37  C   UNL     1       8.080   2.986   0.000  0.00  0.00    +0.000 A 
ATOM     38  C   UNL     1       6.615   2.992   0.000  0.00  0.00    +0.000 A 
ATOM     39  C   UNL     1       8.094   3.845   0.000  0.00  0.00    +0.000 A 
ATOM     40  C   UNL     1       6.608   3.851   0.000  0.00  0.00    +0.000 A 
ATOM     41  C   UNL     1       7.353   4.281   0.000  0.00  0.00    +0.000 A 
BRANCH  34  43
ATOM     42  O   UNL     1      11.653   0.098   0.000  0.00  0.00    +0.000 OA
ATOM     43  C   UNL     1       9.509   1.336   0.000  0.00  0.00    +0.000 A 
ATOM     44  C   UNL     1       9.509   0.511   0.000  0.00  0.00    +0.000 A 
ATOM     45  C   UNL     1      10.224   1.748   0.000  0.00  0.00    +0.000 A 
ATOM     46  C   UNL     1      10.224   0.098   0.000  0.00  0.00    +0.000 A 
ATOM     47  C   UNL     1      10.938   1.336   0.000  0.00  0.00    +0.000 A 
ATOM     48  C   UNL     1      10.938   0.511   0.000  0.00  0.00    +0.000 A 
ENDBRANCH  34  43
ENDBRANCH  28  33
ENDBRANCH   6  28
TORSDOF 11
