REMARK  Name = 44259487
REMARK  5 active torsions:
REMARK  status: ('A' for Active; 'I' for Inactive)
REMARK    1  A    between atoms: O_11  and  C_32
REMARK    2  A    between atoms: O_12  and  C_33
REMARK    3  A    between atoms: C_16  and  C_19
REMARK    4  A    between atoms: C_18  and  C_20
REMARK    5  A    between atoms: C_27  and  C_29
REMARK                            x       y       z     vdW  Elec       q    Type
REMARK                         _______ _______ _______ _____ _____    ______ ____
ROOT
ATOM      1  O   UNL     1       6.380   1.738   0.000  0.00  0.00    +0.000 OA
ATOM      2  O   UNL     1       4.951  -0.737   0.000  0.00  0.00    +0.000 OA
ATOM      3  O   UNL     1       7.832  -0.765   0.000  0.00  0.00    +0.000 OA
ATOM      4  O   UNL     1       7.822   1.767   0.000  0.00  0.00    +0.000 OA
ATOM      5  O   UNL     1       9.292   0.933   0.000  0.00  0.00    +0.000 OA
ATOM      6  C   UNL     1       5.665   0.501   0.000  0.00  0.00    +0.000 A 
ATOM      7  C   UNL     1       6.380   0.913   0.000  0.00  0.00    +0.000 A 
ATOM      8  C   UNL     1       5.665  -0.324   0.000  0.00  0.00    +0.000 A 
ATOM      9  C   UNL     1       7.094   0.501   0.000  0.00  0.00    +0.000 A 
ATOM     10  C   UNL     1       6.380  -0.737   0.000  0.00  0.00    +0.000 A 
ATOM     11  C   UNL     1       7.094  -0.324   0.000  0.00  0.00    +0.000 A 
ATOM     12  C   UNL     1       7.832   0.942   0.000  0.00  0.00    +0.000 A 
ATOM     13  C   UNL     1       8.579  -0.341   0.000  0.00  0.00    +0.000 A 
ATOM     14  C   UNL     1       8.579   0.518   0.000  0.00  0.00    +0.000 A 
ENDROOT
BRANCH   6  21
ATOM     15  O   UNL     1       4.236   0.501   0.000  0.00  0.00    +0.000 OA
ATOM     16  O   UNL     1       5.665   2.151   0.000  0.00  0.00    +0.000 OA
ATOM     17  O   UNL     1       4.236   2.976   0.000  0.00  0.00    +0.000 OA
ATOM     18  O   UNL     1       2.808   2.151   0.000  0.00  0.00    +0.000 OA
ATOM     19  C   UNL     1       4.951   1.738   0.000  0.00  0.00    +0.000 C 
ATOM     20  C   UNL     1       4.236   2.151   0.000  0.00  0.00    +0.000 C 
ATOM     21  C   UNL     1       4.951   0.913   0.000  0.00  0.00    +0.000 C 
ATOM     22  C   UNL     1       3.522   1.738   0.000  0.00  0.00    +0.000 C 
ATOM     23  C   UNL     1       3.522   0.913   0.000  0.00  0.00    +0.000 C 
BRANCH  23  25
ATOM     24  O   UNL     1       2.093   0.913   0.000  0.00  0.00    +0.000 OA
ATOM     25  C   UNL     1       2.808   0.501   0.000  0.00  0.00    +0.000 C 
ENDBRANCH  23  25
ENDBRANCH   6  21
BRANCH  13  27
ATOM     26  O   UNL     1      11.431  -2.002   0.000  0.00  0.00    +0.000 OA
ATOM     27  C   UNL     1       9.292  -0.757   0.000  0.00  0.00    +0.000 A 
ATOM     28  C   UNL     1       9.289  -1.582   0.000  0.00  0.00    +0.000 A 
ATOM     29  C   UNL     1      10.008  -0.347   0.000  0.00  0.00    +0.000 A 
ATOM     30  C   UNL     1      10.721  -0.762   0.000  0.00  0.00    +0.000 A 
ATOM     31  C   UNL     1      10.002  -1.997   0.000  0.00  0.00    +0.000 A 
ATOM     32  C   UNL     1      10.718  -1.587   0.000  0.00  0.00    +0.000 A 
BRANCH  30  33
ATOM     33  O   UNL     1      11.437  -0.352   0.000  0.00  0.00    +0.000 OA
ATOM     34  C   UNL     1      12.150  -0.768   0.000  0.00  0.00    +0.000 C 
ENDBRANCH  30  33
BRANCH  31  35
ATOM     35  O   UNL     1       9.999  -2.822   0.000  0.00  0.00    +0.000 OA
ATOM     36  C   UNL     1       9.283  -3.232   0.000  0.00  0.00    +0.000 C 
ENDBRANCH  31  35
ENDBRANCH  13  27
TORSDOF 5
