REMARK  Name = 44259074
REMARK  15 active torsions:
REMARK  status: ('A' for Active; 'I' for Inactive)
REMARK    1  A    between atoms: O_1  and  C_22
REMARK    2  A    between atoms: O_1  and  C_27
REMARK    3  A    between atoms: O_4  and  C_23
REMARK    4  A    between atoms: O_4  and  C_39
REMARK    5  A    between atoms: O_5  and  C_26
REMARK    6  A    between atoms: O_5  and  C_38
REMARK    7  A    between atoms: O_7  and  C_29
REMARK    8  A    between atoms: O_7  and  C_47
REMARK    9  A    between atoms: O_11  and  C_37
REMARK   10  A    between atoms: O_11  and  C_44
REMARK   11  A    between atoms: O_21  and  C_60
REMARK   12  A    between atoms: C_36  and  C_40
REMARK   13  A    between atoms: C_41  and  C_51
REMARK   14  A    between atoms: C_46  and  C_52
REMARK   15  A    between atoms: C_52  and  C_56
REMARK                            x       y       z     vdW  Elec       q    Type
REMARK                         _______ _______ _______ _____ _____    ______ ____
ROOT
ATOM      1  O   UNL     1       7.094   1.158   0.000  0.00  0.00    +0.000 OA
ATOM      2  O   UNL     1       4.951  -0.079   0.000  0.00  0.00    +0.000 OA
ATOM      3  O   UNL     1       4.205   1.155   0.000  0.00  0.00    +0.000 OA
ATOM      4  C   UNL     1       6.380  -0.079   0.000  0.00  0.00    +0.000 A 
ATOM      5  C   UNL     1       7.094   0.333   0.000  0.00  0.00    +0.000 A 
ATOM      6  C   UNL     1       5.665   0.333   0.000  0.00  0.00    +0.000 A 
ATOM      7  C   UNL     1       5.665   1.158   0.000  0.00  0.00    +0.000 A 
ATOM      8  C   UNL     1       5.652   2.865   0.000  0.00  0.00    +0.000 A 
ATOM      9  C   UNL     1       6.380   1.571   0.000  0.00  0.00    +0.000 A 
ATOM     10  C   UNL     1       6.393   2.430   0.000  0.00  0.00    +0.000 A 
ATOM     11  C   UNL     1       4.915   1.576   0.000  0.00  0.00    +0.000 A 
ATOM     12  C   UNL     1       4.908   2.436   0.000  0.00  0.00    +0.000 A 
ENDROOT
BRANCH   5  13
ATOM     13  C   UNL     1       7.809  -0.079   0.000  0.00  0.00    +0.000 A 
ATOM     14  C   UNL     1       7.809  -0.904   0.000  0.00  0.00    +0.000 A 
ATOM     15  C   UNL     1       8.523   0.333   0.000  0.00  0.00    +0.000 A 
ATOM     16  C   UNL     1       8.523  -1.317   0.000  0.00  0.00    +0.000 A 
ATOM     17  C   UNL     1       9.238  -0.079   0.000  0.00  0.00    +0.000 A 
ATOM     18  C   UNL     1       9.238  -0.904   0.000  0.00  0.00    +0.000 A 
BRANCH  18  19
ATOM     19  O   UNL     1       9.952  -1.317   0.000  0.00  0.00    +0.000 OA
ATOM     20  C   UNL     1      10.667  -0.904   0.000  0.00  0.00    +0.000 C 
ENDBRANCH  18  19
ENDBRANCH   5  13
BRANCH   4  21
ATOM     21  O   UNL     1       6.380  -0.904   0.000  0.00  0.00    +0.000 OA
BRANCH  21  28
ATOM     22  O   UNL     1       4.951  -0.904   0.000  0.00  0.00    +0.000 OA
ATOM     23  O   UNL     1       6.380  -2.554   0.000  0.00  0.00    +0.000 OA
ATOM     24  C   UNL     1       4.951  -2.554   0.000  0.00  0.00    +0.000 C 
ATOM     25  C   UNL     1       4.236  -2.142   0.000  0.00  0.00    +0.000 C 
ATOM     26  C   UNL     1       5.665  -2.142   0.000  0.00  0.00    +0.000 C 
ATOM     27  C   UNL     1       4.236  -1.317   0.000  0.00  0.00    +0.000 C 
ATOM     28  C   UNL     1       5.665  -1.317   0.000  0.00  0.00    +0.000 C 
ATOM     29  C   UNL     1       3.522  -0.904   0.000  0.00  0.00    +0.000 C 
BRANCH  24  30
ATOM     30  O   UNL     1       4.951  -3.379   0.000  0.00  0.00    +0.000 OA
BRANCH  30  34
ATOM     31  O   UNL     1       3.522  -3.379   0.000  0.00  0.00    +0.000 OA
ATOM     32  O   UNL     1       4.951  -5.029   0.000  0.00  0.00    +0.000 OA
ATOM     33  O   UNL     1       2.093  -5.029   0.000  0.00  0.00    +0.000 OA
ATOM     34  C   UNL     1       4.236  -3.792   0.000  0.00  0.00    +0.000 C 
ATOM     35  C   UNL     1       4.236  -4.617   0.000  0.00  0.00    +0.000 C 
ATOM     36  C   UNL     1       3.522  -5.029   0.000  0.00  0.00    +0.000 C 
ATOM     37  C   UNL     1       2.808  -4.617   0.000  0.00  0.00    +0.000 C 
ATOM     38  C   UNL     1       2.808  -3.792   0.000  0.00  0.00    +0.000 C 
BRANCH  36  39
ATOM     39  O   UNL     1       3.522  -5.854   0.000  0.00  0.00    +0.000 OA
BRANCH  39  41
ATOM     40  O   UNL     1       2.093  -5.854   0.000  0.00  0.00    +0.000 OA
ATOM     41  C   UNL     1       2.808  -6.267   0.000  0.00  0.00    +0.000 C 
ATOM     42  C   UNL     1       2.808  -7.092   0.000  0.00  0.00    +0.000 C 
ENDBRANCH  39  41
ENDBRANCH  36  39
ENDBRANCH  30  34
ENDBRANCH  24  30
BRANCH  25  43
ATOM     43  O   UNL     1       3.522  -2.554   0.000  0.00  0.00    +0.000 OA
BRANCH  43  45
ATOM     44  O   UNL     1       2.808  -1.317   0.000  0.00  0.00    +0.000 OA
ATOM     45  C   UNL     1       2.808  -2.142   0.000  0.00  0.00    +0.000 C 
ATOM     46  C   UNL     1       2.093  -2.554   0.000  0.00  0.00    +0.000 C 
ENDBRANCH  43  45
ENDBRANCH  25  43
ENDBRANCH  21  28
ENDBRANCH   4  21
BRANCH   8  47
ATOM     47  O   UNL     1       5.655   3.690   0.000  0.00  0.00    +0.000 OA
BRANCH  47  56
ATOM     48  O   UNL     1       4.946   4.930   0.000  0.00  0.00    +0.000 OA
ATOM     49  O   UNL     1       2.797   3.701   0.000  0.00  0.00    +0.000 OA
ATOM     50  O   UNL     1       2.804   5.351   0.000  0.00  0.00    +0.000 OA
ATOM     51  O   UNL     1       4.223   2.871   0.000  0.00  0.00    +0.000 OA
ATOM     52  C   UNL     1       3.514   4.111   0.000  0.00  0.00    +0.000 C 
ATOM     53  C   UNL     1       3.517   4.936   0.000  0.00  0.00    +0.000 C 
ATOM     54  C   UNL     1       4.226   3.696   0.000  0.00  0.00    +0.000 C 
ATOM     55  C   UNL     1       4.233   5.346   0.000  0.00  0.00    +0.000 C 
ATOM     56  C   UNL     1       4.942   4.105   0.000  0.00  0.00    +0.000 C 
BRANCH  55  58
ATOM     57  O   UNL     1       4.952   6.580   0.000  0.00  0.00    +0.000 OA
ATOM     58  C   UNL     1       4.236   6.171   0.000  0.00  0.00    +0.000 C 
ENDBRANCH  55  58
ENDBRANCH  47  56
ENDBRANCH   8  47
BRANCH  10  59
ATOM     59  C   UNL     1       7.112   2.834   0.000  0.00  0.00    +0.000 C 
BRANCH  59  60
ATOM     60  C   UNL     1       7.122   3.659   0.000  0.00  0.00    +0.000 C 
ATOM     61  C   UNL     1       7.841   4.063   0.000  0.00  0.00    +0.000 C 
ATOM     62  C   UNL     1       7.851   4.888   0.000  0.00  0.00    +0.000 C 
ATOM     63  C   UNL     1       8.551   3.643   0.000  0.00  0.00    +0.000 C 
ENDBRANCH  59  60
ENDBRANCH  10  59
TORSDOF 15
