REMARK  Name = 44257205
REMARK  5 active torsions:
REMARK  status: ('A' for Active; 'I' for Inactive)
REMARK    1  A    between atoms: O_2  and  C_10
REMARK    2  A    between atoms: O_3  and  C_12
REMARK    3  A    between atoms: C_5  and  C_13
REMARK    4  A    between atoms: C_6  and  C_8
REMARK    5  A    between atoms: C_8  and  C_15
REMARK                            x       y       z     vdW  Elec       q    Type
REMARK                         _______ _______ _______ _____ _____    ______ ____
ROOT
ATOM      1  O   UNL     1       5.245  -0.235   0.000  0.00  0.00    +0.000 OA
ATOM      2  C   UNL     1       4.508   0.206   0.000  0.00  0.00    +0.000 A 
ATOM      3  C   UNL     1       5.993   0.189   0.000  0.00  0.00    +0.000 C 
ATOM      4  C   UNL     1       3.793  -0.206   0.000  0.00  0.00    +0.000 A 
ATOM      5  C   UNL     1       4.508   1.031   0.000  0.00  0.00    +0.000 A 
ATOM      6  C   UNL     1       5.993   1.048   0.000  0.00  0.00    +0.000 C 
ATOM      7  C   UNL     1       3.079   0.206   0.000  0.00  0.00    +0.000 A 
ATOM      8  C   UNL     1       5.245   1.472   0.000  0.00  0.00    +0.000 C 
ATOM      9  C   UNL     1       3.793   1.444   0.000  0.00  0.00    +0.000 A 
ATOM     10  C   UNL     1       3.079   1.031   0.000  0.00  0.00    +0.000 A 
ENDROOT
BRANCH   3  11
ATOM     11  C   UNL     1       6.706  -0.226   0.000  0.00  0.00    +0.000 A 
ATOM     12  C   UNL     1       7.422   0.184   0.000  0.00  0.00    +0.000 A 
ATOM     13  C   UNL     1       6.703  -1.051   0.000  0.00  0.00    +0.000 A 
ATOM     14  C   UNL     1       8.135  -0.232   0.000  0.00  0.00    +0.000 A 
ATOM     15  C   UNL     1       7.415  -1.466   0.000  0.00  0.00    +0.000 A 
ATOM     16  C   UNL     1       8.132  -1.057   0.000  0.00  0.00    +0.000 A 
ENDBRANCH   3  11
BRANCH   7  17
ATOM     17  O   UNL     1       2.364  -0.206   0.000  0.00  0.00    +0.000 OA
ATOM     18  C   UNL     1       1.650   0.206   0.000  0.00  0.00    +0.000 C 
ENDBRANCH   7  17
BRANCH   9  19
ATOM     19  O   UNL     1       3.793   2.269   0.000  0.00  0.00    +0.000 OA
ATOM     20  C   UNL     1       3.079   2.681   0.000  0.00  0.00    +0.000 C 
ENDBRANCH   9  19
BRANCH   4  21
ATOM     21  C   UNL     1       3.793  -1.031   0.000  0.00  0.00    +0.000 C 
BRANCH  21  22
ATOM     22  C   UNL     1       3.079  -1.444   0.000  0.00  0.00    +0.000 C 
ATOM     23  C   UNL     1       3.079  -2.269   0.000  0.00  0.00    +0.000 C 
ATOM     24  C   UNL     1       2.364  -2.681   0.000  0.00  0.00    +0.000 C 
ATOM     25  C   UNL     1       3.793  -2.681   0.000  0.00  0.00    +0.000 C 
ENDBRANCH  21  22
ENDBRANCH   4  21
TORSDOF 5
