REMARK  Name = 44258597
REMARK  11 active torsions:
REMARK  status: ('A' for Active; 'I' for Inactive)
REMARK    1  A    between atoms: O_1  and  C_20
REMARK    2  A    between atoms: O_1  and  C_23
REMARK    3  A    between atoms: O_5  and  C_25
REMARK    4  A    between atoms: O_5  and  C_32
REMARK    5  A    between atoms: O_10  and  C_30
REMARK    6  A    between atoms: O_10  and  C_35
REMARK    7  A    between atoms: O_11  and  C_31
REMARK    8  A    between atoms: O_11  and  C_36
REMARK    9  A    between atoms: C_26  and  C_30
REMARK   10  A    between atoms: C_29  and  C_31
REMARK   11  A    between atoms: C_43  and  C_45
REMARK                            x       y       z     vdW  Elec       q    Type
REMARK                         _______ _______ _______ _____ _____    ______ ____
ROOT
ATOM      1  O   UNL     1       5.222   0.349   0.000  0.00  0.00    +0.000 OA
ATOM      2  O   UNL     1       5.222  -2.126   0.000  0.00  0.00    +0.000 OA
ATOM      3  O   UNL     1       3.793  -1.301   0.000  0.00  0.00    +0.000 OA
ATOM      4  C   UNL     1       5.937  -0.889   0.000  0.00  0.00    +0.000 C 
ATOM      5  C   UNL     1       5.222  -1.301   0.000  0.00  0.00    +0.000 C 
ATOM      6  C   UNL     1       4.508  -0.889   0.000  0.00  0.00    +0.000 C 
ATOM      7  C   UNL     1       5.937  -0.064   0.000  0.00  0.00    +0.000 C 
ATOM      8  C   UNL     1       4.508  -0.064   0.000  0.00  0.00    +0.000 C 
ENDROOT
BRANCH   4   9
ATOM      9  O   UNL     1       6.651  -1.301   0.000  0.00  0.00    +0.000 OA
BRANCH   9  14
ATOM     10  O   UNL     1       5.937  -2.539   0.000  0.00  0.00    +0.000 OA
ATOM     11  O   UNL     1       8.080  -2.126   0.000  0.00  0.00    +0.000 OA
ATOM     12  O   UNL     1       8.080  -3.776   0.000  0.00  0.00    +0.000 OA
ATOM     13  O   UNL     1       6.651  -4.601   0.000  0.00  0.00    +0.000 OA
ATOM     14  C   UNL     1       6.651  -2.126   0.000  0.00  0.00    +0.000 C 
ATOM     15  C   UNL     1       7.366  -2.539   0.000  0.00  0.00    +0.000 C 
ATOM     16  C   UNL     1       7.366  -3.364   0.000  0.00  0.00    +0.000 C 
ATOM     17  C   UNL     1       6.651  -3.776   0.000  0.00  0.00    +0.000 C 
ATOM     18  C   UNL     1       5.937  -3.364   0.000  0.00  0.00    +0.000 C 
BRANCH  18  19
ATOM     19  C   UNL     1       5.222  -3.776   0.000  0.00  0.00    +0.000 C 
BRANCH  19  20
ATOM     20  O   UNL     1       5.222  -4.601   0.000  0.00  0.00    +0.000 OA
BRANCH  20  22
ATOM     21  O   UNL     1       3.793  -4.601   0.000  0.00  0.00    +0.000 OA
ATOM     22  C   UNL     1       4.508  -5.014   0.000  0.00  0.00    +0.000 C 
ATOM     23  C   UNL     1       4.508  -5.839   0.000  0.00  0.00    +0.000 C 
ENDBRANCH  20  22
ENDBRANCH  19  20
ENDBRANCH  18  19
ENDBRANCH   9  14
ENDBRANCH   4   9
BRANCH   7  24
ATOM     24  O   UNL     1       6.651   0.349   0.000  0.00  0.00    +0.000 OA
BRANCH  24  29
ATOM     25  O   UNL     1       8.080   1.174   0.000  0.00  0.00    +0.000 OA
ATOM     26  O   UNL     1       8.117   2.829   0.000  0.00  0.00    +0.000 OA
ATOM     27  O   UNL     1       5.222   2.824   0.000  0.00  0.00    +0.000 OA
ATOM     28  O   UNL     1       5.919   4.087   0.000  0.00  0.00    +0.000 OA
ATOM     29  C   UNL     1       6.651   1.174   0.000  0.00  0.00    +0.000 A 
ATOM     30  C   UNL     1       7.366   1.586   0.000  0.00  0.00    +0.000 A 
ATOM     31  C   UNL     1       5.937   1.586   0.000  0.00  0.00    +0.000 A 
ATOM     32  C   UNL     1       7.366   2.411   0.000  0.00  0.00    +0.000 A 
ATOM     33  C   UNL     1       5.937   2.411   0.000  0.00  0.00    +0.000 A 
ATOM     34  C   UNL     1       6.651   2.824   0.000  0.00  0.00    +0.000 A 
ATOM     35  C   UNL     1       6.638   3.683   0.000  0.00  0.00    +0.000 A 
ATOM     36  C   UNL     1       8.123   3.688   0.000  0.00  0.00    +0.000 A 
ATOM     37  C   UNL     1       7.379   4.118   0.000  0.00  0.00    +0.000 A 
BRANCH  36  40
ATOM     38  O   UNL     1      10.981   3.678   0.000  0.00  0.00    +0.000 OA
ATOM     39  O   UNL     1      10.987   5.327   0.000  0.00  0.00    +0.000 OA
ATOM     40  C   UNL     1       8.839   4.098   0.000  0.00  0.00    +0.000 A 
ATOM     41  C   UNL     1       9.552   3.683   0.000  0.00  0.00    +0.000 A 
ATOM     42  C   UNL     1       8.842   4.923   0.000  0.00  0.00    +0.000 A 
ATOM     43  C   UNL     1      10.268   4.093   0.000  0.00  0.00    +0.000 A 
ATOM     44  C   UNL     1       9.559   5.333   0.000  0.00  0.00    +0.000 A 
ATOM     45  C   UNL     1      10.271   4.918   0.000  0.00  0.00    +0.000 A 
ENDBRANCH  36  40
ENDBRANCH  24  29
ENDBRANCH   7  24
BRANCH   8  46
ATOM     46  C   UNL     1       3.793   0.349   0.000  0.00  0.00    +0.000 C 
BRANCH  46  47
ATOM     47  O   UNL     1       3.079  -0.064   0.000  0.00  0.00    +0.000 OA
BRANCH  47  49
ATOM     48  O   UNL     1       2.365   1.174   0.000  0.00  0.00    +0.000 OA
ATOM     49  C   UNL     1       2.365   0.349   0.000  0.00  0.00    +0.000 C 
ATOM     50  C   UNL     1       1.650  -0.064   0.000  0.00  0.00    +0.000 C 
ENDBRANCH  47  49
ENDBRANCH  46  47
ENDBRANCH   8  46
TORSDOF 11
