REMARK  Name = 42607894
REMARK  9 active torsions:
REMARK  status: ('A' for Active; 'I' for Inactive)
REMARK    1  A    between atoms: O_3  and  C_22
REMARK    2  A    between atoms: O_3  and  C_28
REMARK    3  A    between atoms: O_7  and  C_25
REMARK    4  A    between atoms: O_7  and  C_35
REMARK    5  A    between atoms: C_19  and  C_26
REMARK    6  A    between atoms: C_24  and  C_27
REMARK    7  A    between atoms: C_29  and  C_34
REMARK    8  A    between atoms: C_30  and  C_38
REMARK    9  A    between atoms: C_38  and  C_44
REMARK                            x       y       z     vdW  Elec       q    Type
REMARK                         _______ _______ _______ _____ _____    ______ ____
ROOT
ATOM      1  O   UNL     1       7.131  -0.425   0.000  0.00  0.00    +0.000 OA
ATOM      2  O   UNL     1       4.236  -0.431   0.000  0.00  0.00    +0.000 OA
ATOM      3  O   UNL     1       4.933   0.833   0.000  0.00  0.00    +0.000 OA
ATOM      4  C   UNL     1       5.665  -2.081   0.000  0.00  0.00    +0.000 A 
ATOM      5  C   UNL     1       7.137   0.434   0.000  0.00  0.00    +0.000 C 
ATOM      6  C   UNL     1       6.380  -1.668   0.000  0.00  0.00    +0.000 A 
ATOM      7  C   UNL     1       6.380  -0.843   0.000  0.00  0.00    +0.000 A 
ATOM      8  C   UNL     1       6.393   0.864   0.000  0.00  0.00    +0.000 C 
ATOM      9  C   UNL     1       5.665  -0.431   0.000  0.00  0.00    +0.000 A 
ATOM     10  C   UNL     1       4.951  -1.668   0.000  0.00  0.00    +0.000 A 
ATOM     11  C   UNL     1       5.652   0.429   0.000  0.00  0.00    +0.000 C 
ATOM     12  C   UNL     1       4.951  -0.843   0.000  0.00  0.00    +0.000 A 
ENDROOT
BRANCH   5  13
ATOM     13  C   UNL     1       7.853   0.844   0.000  0.00  0.00    +0.000 A 
ATOM     14  C   UNL     1       9.285   1.664   0.000  0.00  0.00    +0.000 A 
ATOM     15  C   UNL     1       7.856   1.669   0.000  0.00  0.00    +0.000 A 
ATOM     16  C   UNL     1       8.566   0.429   0.000  0.00  0.00    +0.000 A 
ATOM     17  C   UNL     1       8.572   2.079   0.000  0.00  0.00    +0.000 A 
ATOM     18  C   UNL     1       9.282   0.839   0.000  0.00  0.00    +0.000 A 
BRANCH  14  19
ATOM     19  O   UNL     1      10.001   2.073   0.000  0.00  0.00    +0.000 OA
BRANCH  19  28
ATOM     20  O   UNL     1       9.292   3.314   0.000  0.00  0.00    +0.000 OA
ATOM     21  O   UNL     1      11.440   4.543   0.000  0.00  0.00    +0.000 OA
ATOM     22  O   UNL     1      10.014   5.373   0.000  0.00  0.00    +0.000 OA
ATOM     23  O   UNL     1      11.434   2.893   0.000  0.00  0.00    +0.000 OA
ATOM     24  C   UNL     1      10.724   4.133   0.000  0.00  0.00    +0.000 C 
ATOM     25  C   UNL     1      10.011   4.548   0.000  0.00  0.00    +0.000 C 
ATOM     26  C   UNL     1      10.721   3.308   0.000  0.00  0.00    +0.000 C 
ATOM     27  C   UNL     1       9.295   4.139   0.000  0.00  0.00    +0.000 C 
ATOM     28  C   UNL     1      10.005   2.898   0.000  0.00  0.00    +0.000 C 
BRANCH  27  30
ATOM     29  O   UNL     1       8.585   5.379   0.000  0.00  0.00    +0.000 OA
ATOM     30  C   UNL     1       8.582   4.554   0.000  0.00  0.00    +0.000 C 
ENDBRANCH  27  30
ENDBRANCH  19  28
ENDBRANCH  14  19
ENDBRANCH   5  13
BRANCH   4  31
ATOM     31  O   UNL     1       5.665  -2.906   0.000  0.00  0.00    +0.000 OA
BRANCH  31  40
ATOM     32  O   UNL     1       4.236  -2.906   0.000  0.00  0.00    +0.000 OA
ATOM     33  O   UNL     1       4.236  -5.381   0.000  0.00  0.00    +0.000 OA
ATOM     34  O   UNL     1       2.808  -4.556   0.000  0.00  0.00    +0.000 OA
ATOM     35  O   UNL     1       5.665  -4.556   0.000  0.00  0.00    +0.000 OA
ATOM     36  C   UNL     1       4.236  -4.556   0.000  0.00  0.00    +0.000 C 
ATOM     37  C   UNL     1       3.522  -4.143   0.000  0.00  0.00    +0.000 C 
ATOM     38  C   UNL     1       4.951  -4.143   0.000  0.00  0.00    +0.000 C 
ATOM     39  C   UNL     1       3.522  -3.318   0.000  0.00  0.00    +0.000 C 
ATOM     40  C   UNL     1       4.951  -3.318   0.000  0.00  0.00    +0.000 C 
BRANCH  39  42
ATOM     41  O   UNL     1       2.093  -3.318   0.000  0.00  0.00    +0.000 OA
ATOM     42  C   UNL     1       2.808  -2.906   0.000  0.00  0.00    +0.000 C 
ENDBRANCH  39  42
ENDBRANCH  31  40
ENDBRANCH   4  31
BRANCH   6  43
ATOM     43  C   UNL     1       7.094  -2.081   0.000  0.00  0.00    +0.000 C 
BRANCH  43  44
ATOM     44  C   UNL     1       7.094  -2.906   0.000  0.00  0.00    +0.000 C 
ATOM     45  C   UNL     1       7.809  -3.318   0.000  0.00  0.00    +0.000 C 
ATOM     46  C   UNL     1       7.809  -4.143   0.000  0.00  0.00    +0.000 C 
ATOM     47  C   UNL     1       8.523  -2.906   0.000  0.00  0.00    +0.000 C 
ENDBRANCH  43  44
ENDBRANCH   6  43
TORSDOF 9
