REMARK  Name = 44257895
REMARK  15 active torsions:
REMARK  status: ('A' for Active; 'I' for Inactive)
REMARK    1  A    between atoms: O_2  and  C_26
REMARK    2  A    between atoms: O_2  and  C_31
REMARK    3  A    between atoms: O_3  and  C_28
REMARK    4  A    between atoms: O_3  and  C_32
REMARK    5  A    between atoms: O_7  and  C_33
REMARK    6  A    between atoms: O_7  and  C_42
REMARK    7  A    between atoms: O_8  and  C_30
REMARK    8  A    between atoms: O_8  and  C_49
REMARK    9  A    between atoms: O_19  and  C_47
REMARK   10  A    between atoms: O_19  and  C_56
REMARK   11  A    between atoms: O_25  and  C_66
REMARK   12  A    between atoms: C_29  and  C_33
REMARK   13  A    between atoms: C_40  and  C_47
REMARK   14  A    between atoms: C_46  and  C_50
REMARK   15  A    between atoms: C_59  and  C_61
REMARK                            x       y       z     vdW  Elec       q    Type
REMARK                         _______ _______ _______ _____ _____    ______ ____
ROOT
ATOM      1  O   UNL     1       7.094  -0.305   0.000  0.00  0.00    +0.000 OA
ATOM      2  O   UNL     1       7.094  -2.780   0.000  0.00  0.00    +0.000 OA
ATOM      3  C   UNL     1       6.380  -1.542   0.000  0.00  0.00    +0.000 C 
ATOM      4  C   UNL     1       7.094  -1.955   0.000  0.00  0.00    +0.000 C 
ATOM      5  C   UNL     1       7.809  -1.542   0.000  0.00  0.00    +0.000 C 
ATOM      6  C   UNL     1       6.380  -0.717   0.000  0.00  0.00    +0.000 C 
ATOM      7  C   UNL     1       7.809  -0.717   0.000  0.00  0.00    +0.000 C 
ENDROOT
BRANCH   3   8
ATOM      8  O   UNL     1       5.665  -1.955   0.000  0.00  0.00    +0.000 OA
BRANCH   8  13
ATOM      9  O   UNL     1       6.380  -3.192   0.000  0.00  0.00    +0.000 OA
ATOM     10  O   UNL     1       4.236  -2.780   0.000  0.00  0.00    +0.000 OA
ATOM     11  O   UNL     1       4.236  -4.430   0.000  0.00  0.00    +0.000 OA
ATOM     12  O   UNL     1       5.665  -5.255   0.000  0.00  0.00    +0.000 OA
ATOM     13  C   UNL     1       5.665  -2.780   0.000  0.00  0.00    +0.000 C 
ATOM     14  C   UNL     1       4.951  -3.192   0.000  0.00  0.00    +0.000 C 
ATOM     15  C   UNL     1       4.951  -4.017   0.000  0.00  0.00    +0.000 C 
ATOM     16  C   UNL     1       5.665  -4.430   0.000  0.00  0.00    +0.000 C 
ATOM     17  C   UNL     1       6.380  -4.017   0.000  0.00  0.00    +0.000 C 
ATOM     18  C   UNL     1       7.094  -4.430   0.000  0.00  0.00    +0.000 C 
ENDBRANCH   8  13
ENDBRANCH   3   8
BRANCH   5  19
ATOM     19  O   UNL     1       8.523  -1.955   0.000  0.00  0.00    +0.000 OA
BRANCH  19  24
ATOM     20  O   UNL     1       9.866  -1.466   0.000  0.00  0.00    +0.000 OA
ATOM     21  O   UNL     1       9.088  -3.505   0.000  0.00  0.00    +0.000 OA
ATOM     22  O   UNL     1      10.713  -3.792   0.000  0.00  0.00    +0.000 OA
ATOM     23  O   UNL     1      11.773  -2.528   0.000  0.00  0.00    +0.000 OA
ATOM     24  C   UNL     1       9.336  -2.098   0.000  0.00  0.00    +0.000 C 
ATOM     25  C   UNL     1       9.618  -2.873   0.000  0.00  0.00    +0.000 C 
ATOM     26  C   UNL     1      10.430  -3.017   0.000  0.00  0.00    +0.000 C 
ATOM     27  C   UNL     1      10.961  -2.385   0.000  0.00  0.00    +0.000 C 
ATOM     28  C   UNL     1      10.678  -1.609   0.000  0.00  0.00    +0.000 C 
BRANCH  28  29
ATOM     29  C   UNL     1      11.209  -0.978   0.000  0.00  0.00    +0.000 C 
BRANCH  29  30
ATOM     30  O   UNL     1      12.021  -1.121   0.000  0.00  0.00    +0.000 OA
BRANCH  30  32
ATOM     31  O   UNL     1      12.269   0.286   0.000  0.00  0.00    +0.000 OA
ATOM     32  C   UNL     1      12.552  -0.489   0.000  0.00  0.00    +0.000 C 
ATOM     33  C   UNL     1      13.364  -0.632   0.000  0.00  0.00    +0.000 C 
ENDBRANCH  30  32
ENDBRANCH  29  30
ENDBRANCH  28  29
ENDBRANCH  19  24
ENDBRANCH   5  19
BRANCH   7  34
ATOM     34  O   UNL     1       8.523  -0.305   0.000  0.00  0.00    +0.000 OA
BRANCH  34  38
ATOM     35  O   UNL     1       7.074   2.222   0.000  0.00  0.00    +0.000 OA
ATOM     36  O   UNL     1       9.964   2.235   0.000  0.00  0.00    +0.000 OA
ATOM     37  O   UNL     1       9.213   3.467   0.000  0.00  0.00    +0.000 OA
ATOM     38  C   UNL     1       8.523   0.520   0.000  0.00  0.00    +0.000 A 
ATOM     39  C   UNL     1       7.781   0.953   0.000  0.00  0.00    +0.000 A 
ATOM     40  C   UNL     1       9.266   0.953   0.000  0.00  0.00    +0.000 A 
ATOM     41  C   UNL     1       7.791   1.812   0.000  0.00  0.00    +0.000 A 
ATOM     42  C   UNL     1       9.256   1.812   0.000  0.00  0.00    +0.000 A 
ATOM     43  C   UNL     1       8.503   2.227   0.000  0.00  0.00    +0.000 A 
ATOM     44  C   UNL     1       8.500   3.052   0.000  0.00  0.00    +0.000 A 
ATOM     45  C   UNL     1       7.071   3.047   0.000  0.00  0.00    +0.000 A 
ATOM     46  C   UNL     1       7.784   3.462   0.000  0.00  0.00    +0.000 A 
BRANCH  45  47
ATOM     47  C   UNL     1       6.355   3.456   0.000  0.00  0.00    +0.000 A 
ATOM     48  C   UNL     1       5.642   3.041   0.000  0.00  0.00    +0.000 A 
ATOM     49  C   UNL     1       6.352   4.281   0.000  0.00  0.00    +0.000 A 
ATOM     50  C   UNL     1       4.926   3.451   0.000  0.00  0.00    +0.000 A 
ATOM     51  C   UNL     1       5.636   4.691   0.000  0.00  0.00    +0.000 A 
ATOM     52  C   UNL     1       4.923   4.276   0.000  0.00  0.00    +0.000 A 
BRANCH  52  53
ATOM     53  O   UNL     1       4.207   4.686   0.000  0.00  0.00    +0.000 OA
ATOM     54  C   UNL     1       4.204   5.511   0.000  0.00  0.00    +0.000 C 
ENDBRANCH  52  53
ENDBRANCH  45  47
ENDBRANCH  34  38
ENDBRANCH   7  34
BRANCH   6  55
ATOM     55  C   UNL     1       5.665  -0.305   0.000  0.00  0.00    +0.000 C 
BRANCH  55  56
ATOM     56  O   UNL     1       4.951  -0.717   0.000  0.00  0.00    +0.000 OA
BRANCH  56  61
ATOM     57  O   UNL     1       4.236   0.520   0.000  0.00  0.00    +0.000 OA
ATOM     58  O   UNL     1       3.522  -1.542   0.000  0.00  0.00    +0.000 OA
ATOM     59  O   UNL     1       2.093  -0.717   0.000  0.00  0.00    +0.000 OA
ATOM     60  O   UNL     1       2.093   0.933   0.000  0.00  0.00    +0.000 OA
ATOM     61  C   UNL     1       4.236  -0.305   0.000  0.00  0.00    +0.000 C 
ATOM     62  C   UNL     1       3.522  -0.717   0.000  0.00  0.00    +0.000 C 
ATOM     63  C   UNL     1       2.808  -0.305   0.000  0.00  0.00    +0.000 C 
ATOM     64  C   UNL     1       2.808   0.520   0.000  0.00  0.00    +0.000 C 
ATOM     65  C   UNL     1       3.522   0.933   0.000  0.00  0.00    +0.000 C 
BRANCH  65  67
ATOM     66  O   UNL     1       2.808   2.170   0.000  0.00  0.00    +0.000 OA
ATOM     67  C   UNL     1       3.522   1.758   0.000  0.00  0.00    +0.000 C 
ENDBRANCH  65  67
ENDBRANCH  56  61
ENDBRANCH  55  56
ENDBRANCH   6  55
TORSDOF 15
