REMARK  Name = 44258699
REMARK  9 active torsions:
REMARK  status: ('A' for Active; 'I' for Inactive)
REMARK    1  A    between atoms: O_1  and  C_19
REMARK    2  A    between atoms: O_1  and  C_24
REMARK    3  A    between atoms: O_4  and  C_23
REMARK    4  A    between atoms: O_4  and  C_32
REMARK    5  A    between atoms: O_13  and  C_35
REMARK    6  A    between atoms: O_13  and  C_37
REMARK    7  A    between atoms: O_15  and  C_38
REMARK    8  A    between atoms: C_28  and  C_32
REMARK    9  A    between atoms: C_44  and  C_47
REMARK                            x       y       z     vdW  Elec       q    Type
REMARK                         _______ _______ _______ _____ _____    ______ ____
ROOT
ATOM      1  O   UNL     1       9.238   0.412   0.000  0.00  0.00    +0.000 OA
ATOM      2  O   UNL     1       7.809   2.062   0.000  0.00  0.00    +0.000 OA
ATOM      3  O   UNL     1       9.238   2.888   0.000  0.00  0.00    +0.000 OA
ATOM      4  O   UNL     1      10.667   2.062   0.000  0.00  0.00    +0.000 OA
ATOM      5  C   UNL     1       8.523   0.825   0.000  0.00  0.00    +0.000 C 
ATOM      6  C   UNL     1       8.523   1.650   0.000  0.00  0.00    +0.000 C 
ATOM      7  C   UNL     1       9.238   2.062   0.000  0.00  0.00    +0.000 C 
ATOM      8  C   UNL     1       9.952   1.650   0.000  0.00  0.00    +0.000 C 
ATOM      9  C   UNL     1       9.952   0.825   0.000  0.00  0.00    +0.000 C 
ENDROOT
BRANCH   9  10
ATOM     10  O   UNL     1      10.667   0.412   0.000  0.00  0.00    +0.000 OA
BRANCH  10  14
ATOM     11  O   UNL     1      13.579   0.421   0.000  0.00  0.00    +0.000 OA
ATOM     12  O   UNL     1      13.589   2.896   0.000  0.00  0.00    +0.000 OA
ATOM     13  O   UNL     1      15.014   2.066   0.000  0.00  0.00    +0.000 OA
ATOM     14  C   UNL     1      11.381   0.825   0.000  0.00  0.00    +0.000 A 
ATOM     15  C   UNL     1      12.127   0.398   0.000  0.00  0.00    +0.000 A 
ATOM     16  C   UNL     1      11.384   1.684   0.000  0.00  0.00    +0.000 A 
ATOM     17  C   UNL     1      12.866   0.837   0.000  0.00  0.00    +0.000 A 
ATOM     18  C   UNL     1      12.133   2.105   0.000  0.00  0.00    +0.000 A 
ATOM     19  C   UNL     1      12.869   1.661   0.000  0.00  0.00    +0.000 A 
ATOM     20  C   UNL     1      13.585   2.071   0.000  0.00  0.00    +0.000 A 
ATOM     21  C   UNL     1      14.295   0.831   0.000  0.00  0.00    +0.000 A 
ATOM     22  C   UNL     1      14.298   1.656   0.000  0.00  0.00    +0.000 A 
BRANCH  21  23
ATOM     23  C   UNL     1      15.008   0.416   0.000  0.00  0.00    +0.000 A 
ATOM     24  C   UNL     1      15.724   0.825   0.000  0.00  0.00    +0.000 A 
ATOM     25  C   UNL     1      15.005  -0.409   0.000  0.00  0.00    +0.000 A 
ATOM     26  C   UNL     1      16.437   0.410   0.000  0.00  0.00    +0.000 A 
ATOM     27  C   UNL     1      15.718  -0.825   0.000  0.00  0.00    +0.000 A 
ATOM     28  C   UNL     1      16.434  -0.415   0.000  0.00  0.00    +0.000 A 
ENDBRANCH  21  23
BRANCH  15  29
ATOM     29  O   UNL     1      12.133  -0.427   0.000  0.00  0.00    +0.000 OA
ATOM     30  C   UNL     1      11.422  -0.845   0.000  0.00  0.00    +0.000 C 
ENDBRANCH  15  29
ENDBRANCH  10  14
ENDBRANCH   9  10
BRANCH   5  31
ATOM     31  C   UNL     1       7.809   0.412   0.000  0.00  0.00    +0.000 C 
BRANCH  31  32
ATOM     32  O   UNL     1       7.809  -0.412   0.000  0.00  0.00    +0.000 OA
BRANCH  32  40
ATOM     33  O   UNL     1       6.380  -0.412   0.000  0.00  0.00    +0.000 OA
ATOM     34  O   UNL     1       6.380  -2.888   0.000  0.00  0.00    +0.000 OA
ATOM     35  O   UNL     1       7.809  -2.062   0.000  0.00  0.00    +0.000 OA
ATOM     36  C   UNL     1       5.665  -1.650   0.000  0.00  0.00    +0.000 C 
ATOM     37  C   UNL     1       6.380  -2.062   0.000  0.00  0.00    +0.000 C 
ATOM     38  C   UNL     1       5.665  -0.825   0.000  0.00  0.00    +0.000 C 
ATOM     39  C   UNL     1       7.094  -1.650   0.000  0.00  0.00    +0.000 C 
ATOM     40  C   UNL     1       7.094  -0.825   0.000  0.00  0.00    +0.000 C 
ATOM     41  C   UNL     1       4.951  -0.412   0.000  0.00  0.00    +0.000 C 
BRANCH  36  42
ATOM     42  O   UNL     1       4.951  -2.062   0.000  0.00  0.00    +0.000 OA
BRANCH  42  47
ATOM     43  O   UNL     1       4.236  -0.825   0.000  0.00  0.00    +0.000 OA
ATOM     44  O   UNL     1       3.522  -2.888   0.000  0.00  0.00    +0.000 OA
ATOM     45  O   UNL     1       2.093  -2.062   0.000  0.00  0.00    +0.000 OA
ATOM     46  O   UNL     1       2.093  -0.412   0.000  0.00  0.00    +0.000 OA
ATOM     47  C   UNL     1       4.236  -1.650   0.000  0.00  0.00    +0.000 C 
ATOM     48  C   UNL     1       3.522  -2.062   0.000  0.00  0.00    +0.000 C 
ATOM     49  C   UNL     1       2.808  -1.650   0.000  0.00  0.00    +0.000 C 
ATOM     50  C   UNL     1       2.808  -0.825   0.000  0.00  0.00    +0.000 C 
ATOM     51  C   UNL     1       3.522  -0.412   0.000  0.00  0.00    +0.000 C 
ATOM     52  C   UNL     1       3.522   0.412   0.000  0.00  0.00    +0.000 C 
ENDBRANCH  42  47
ENDBRANCH  36  42
ENDBRANCH  32  40
ENDBRANCH  31  32
ENDBRANCH   5  31
TORSDOF 9
