REMARK  Name = 11256023
REMARK  4 active torsions:
REMARK  status: ('A' for Active; 'I' for Inactive)
REMARK    1  A    between atoms: O_2  and  C_13
REMARK    2  A    between atoms: O_3  and  C_14
REMARK    3  A    between atoms: O_4  and  C_17
REMARK    4  A    between atoms: C_7  and  C_10
REMARK                            x       y       z     vdW  Elec       q    Type
REMARK                         _______ _______ _______ _____ _____    ______ ____
ROOT
ATOM      1  O   UNL     1       8.579   1.046   0.000  0.00  0.00    +0.000 OA
ATOM      2  C   UNL     1       6.435  -0.192   0.000  0.00  0.00    +0.000 A 
ATOM      3  C   UNL     1       7.150  -0.605   0.000  0.00  0.00    +0.000 A 
ATOM      4  C   UNL     1       6.435   0.633   0.000  0.00  0.00    +0.000 A 
ATOM      5  C   UNL     1       7.864  -0.192   0.000  0.00  0.00    +0.000 A 
ATOM      6  C   UNL     1       7.150   1.046   0.000  0.00  0.00    +0.000 A 
ATOM      7  C   UNL     1       7.864   0.633   0.000  0.00  0.00    +0.000 A 
ENDROOT
BRANCH   2  10
ATOM      8  O   UNL     1       5.006  -1.842   0.000  0.00  0.00    +0.000 OA
ATOM      9  O   UNL     1       2.094  -1.862   0.000  0.00  0.00    +0.000 OA
ATOM     10  C   UNL     1       5.721  -0.605   0.000  0.00  0.00    +0.000 C 
ATOM     11  C   UNL     1       5.006  -0.192   0.000  0.00  0.00    +0.000 C 
ATOM     12  C   UNL     1       5.721  -1.429   0.000  0.00  0.00    +0.000 C 
ATOM     13  C   UNL     1       4.292  -0.605   0.000  0.00  0.00    +0.000 A 
ATOM     14  C   UNL     1       4.292  -1.429   0.000  0.00  0.00    +0.000 A 
ATOM     15  C   UNL     1       3.554  -0.163   0.000  0.00  0.00    +0.000 A 
ATOM     16  C   UNL     1       3.554  -1.871   0.000  0.00  0.00    +0.000 A 
ATOM     17  C   UNL     1       2.807  -0.587   0.000  0.00  0.00    +0.000 A 
ATOM     18  C   UNL     1       2.807  -1.447   0.000  0.00  0.00    +0.000 A 
ENDBRANCH   2  10
BRANCH   3  19
ATOM     19  O   UNL     1       7.150  -1.429   0.000  0.00  0.00    +0.000 OA
ATOM     20  C   UNL     1       7.864  -1.842   0.000  0.00  0.00    +0.000 C 
ENDBRANCH   3  19
BRANCH   4  21
ATOM     21  O   UNL     1       5.721   1.046   0.000  0.00  0.00    +0.000 OA
ATOM     22  C   UNL     1       5.721   1.871   0.000  0.00  0.00    +0.000 C 
ENDBRANCH   4  21
BRANCH   5  23
ATOM     23  O   UNL     1       8.579  -0.605   0.000  0.00  0.00    +0.000 OA
ATOM     24  C   UNL     1       9.293  -0.192   0.000  0.00  0.00    +0.000 C 
ENDBRANCH   5  23
TORSDOF 4
