REMARK  Name = 44258236
REMARK  6 active torsions:
REMARK  status: ('A' for Active; 'I' for Inactive)
REMARK    1  A    between atoms: S_1  and  O_4
REMARK    2  A    between atoms: S_2  and  O_5
REMARK    3  A    between atoms: O_4  and  C_24
REMARK    4  A    between atoms: O_5  and  C_27
REMARK    5  A    between atoms: O_7  and  C_28
REMARK    6  A    between atoms: C_17  and  C_18
REMARK                            x       y       z     vdW  Elec       q    Type
REMARK                         _______ _______ _______ _____ _____    ______ ____
ROOT
ATOM      1  O   UNL     1       6.436   0.317   0.000  0.00  0.00    +0.000 OA
ATOM      2  O   UNL     1       4.994   2.821   0.000  0.00  0.00    +0.000 OA
ATOM      3  O   UNL     1       6.436   2.792   0.000  0.00  0.00    +0.000 OA
ATOM      4  C   UNL     1       5.722   1.555   0.000  0.00  0.00    +0.000 A 
ATOM      5  C   UNL     1       5.722   0.730   0.000  0.00  0.00    +0.000 A 
ATOM      6  C   UNL     1       7.151   0.730   0.000  0.00  0.00    +0.000 A 
ATOM      7  C   UNL     1       6.436   1.967   0.000  0.00  0.00    +0.000 A 
ATOM      8  C   UNL     1       7.151   1.555   0.000  0.00  0.00    +0.000 A 
ATOM      9  C   UNL     1       4.984   1.996   0.000  0.00  0.00    +0.000 A 
ATOM     10  C   UNL     1       4.984   0.289   0.000  0.00  0.00    +0.000 A 
ATOM     11  C   UNL     1       4.237   0.713   0.000  0.00  0.00    +0.000 A 
ATOM     12  C   UNL     1       4.237   1.572   0.000  0.00  0.00    +0.000 A 
ENDROOT
BRANCH   6  13
ATOM     13  C   UNL     1       7.865   0.317   0.000  0.00  0.00    +0.000 A 
ATOM     14  C   UNL     1       7.865  -0.508   0.000  0.00  0.00    +0.000 A 
ATOM     15  C   UNL     1       8.580   0.730   0.000  0.00  0.00    +0.000 A 
ATOM     16  C   UNL     1       8.580  -0.920   0.000  0.00  0.00    +0.000 A 
ATOM     17  C   UNL     1       9.294  -0.508   0.000  0.00  0.00    +0.000 A 
ATOM     18  C   UNL     1       9.294   0.317   0.000  0.00  0.00    +0.000 A 
BRANCH  17  19
ATOM     19  O   UNL     1      10.009  -0.920   0.000  0.00  0.00    +0.000 OA
ATOM     20  C   UNL     1      10.723  -0.508   0.000  0.00  0.00    +0.000 C 
ENDBRANCH  17  19
BRANCH  16  21
ATOM     21  O   UNL     1       8.580  -1.745   0.000  0.00  0.00    +0.000 OA
BRANCH  21  22
ATOM     22  S   UNL     1       9.294  -2.158   0.000  0.00  0.00    +0.000 S 
ATOM     23  O   UNL     1      10.009  -2.570   0.000  0.00  0.00    +0.000 OA
ATOM     24  O   UNL     1       8.882  -2.872   0.000  0.00  0.00    +0.000 OA
ATOM     25  O   UNL     1       9.707  -1.443   0.000  0.00  0.00    +0.000 OA
ENDBRANCH  21  22
ENDBRANCH  16  21
ENDBRANCH   6  13
BRANCH  11  26
ATOM     26  O   UNL     1       3.524   0.297   0.000  0.00  0.00    +0.000 OA
BRANCH  26  27
ATOM     27  S   UNL     1       2.808   0.707   0.000  0.00  0.00    +0.000 S 
ATOM     28  O   UNL     1       2.092   1.117   0.000  0.00  0.00    +0.000 OA
ATOM     29  O   UNL     1       2.398  -0.009   0.000  0.00  0.00    +0.000 OA
ATOM     30  O   UNL     1       3.218   1.423   0.000  0.00  0.00    +0.000 OA
ENDBRANCH  26  27
ENDBRANCH  11  26
TORSDOF 6
