REMARK  Name = 44257920
REMARK  4 active torsions:
REMARK  status: ('A' for Active; 'I' for Inactive)
REMARK    1  A    between atoms: O_2  and  C_20
REMARK    2  A    between atoms: O_2  and  C_21
REMARK    3  A    between atoms: C_19  and  C_24
REMARK    4  A    between atoms: C_34  and  C_35
REMARK                            x       y       z     vdW  Elec       q    Type
REMARK                         _______ _______ _______ _____ _____    ______ ____
ROOT
ATOM      1  O   UNL     1       8.523   1.662   0.000  0.00  0.00    +0.000 OA
ATOM      2  O   UNL     1       7.094  -0.813   0.000  0.00  0.00    +0.000 OA
ATOM      3  O   UNL     1       9.975  -0.841   0.000  0.00  0.00    +0.000 OA
ATOM      4  O   UNL     1       9.966   1.691   0.000  0.00  0.00    +0.000 OA
ATOM      5  C   UNL     1       7.809   0.425   0.000  0.00  0.00    +0.000 A 
ATOM      6  C   UNL     1       8.523   0.837   0.000  0.00  0.00    +0.000 A 
ATOM      7  C   UNL     1       7.809  -0.400   0.000  0.00  0.00    +0.000 A 
ATOM      8  C   UNL     1       9.238   0.425   0.000  0.00  0.00    +0.000 A 
ATOM      9  C   UNL     1       8.523  -0.813   0.000  0.00  0.00    +0.000 A 
ATOM     10  C   UNL     1       9.238  -0.400   0.000  0.00  0.00    +0.000 A 
ATOM     11  C   UNL     1       9.975   0.866   0.000  0.00  0.00    +0.000 A 
ATOM     12  C   UNL     1      10.723   0.442   0.000  0.00  0.00    +0.000 A 
ATOM     13  C   UNL     1      10.723  -0.417   0.000  0.00  0.00    +0.000 A 
ENDROOT
BRANCH   5  21
ATOM     14  O   UNL     1       6.380   0.425   0.000  0.00  0.00    +0.000 OA
ATOM     15  O   UNL     1       6.380   2.900   0.000  0.00  0.00    +0.000 OA
ATOM     16  O   UNL     1       7.809   2.075   0.000  0.00  0.00    +0.000 OA
ATOM     17  O   UNL     1       4.951   2.075   0.000  0.00  0.00    +0.000 OA
ATOM     18  C   UNL     1       6.380   2.075   0.000  0.00  0.00    +0.000 C 
ATOM     19  C   UNL     1       7.094   1.662   0.000  0.00  0.00    +0.000 C 
ATOM     20  C   UNL     1       5.665   1.662   0.000  0.00  0.00    +0.000 C 
ATOM     21  C   UNL     1       7.094   0.837   0.000  0.00  0.00    +0.000 C 
ATOM     22  C   UNL     1       5.665   0.837   0.000  0.00  0.00    +0.000 C 
BRANCH  22  23
ATOM     23  O   UNL     1       4.951   0.425   0.000  0.00  0.00    +0.000 OA
BRANCH  23  28
ATOM     24  O   UNL     1       4.236   1.662   0.000  0.00  0.00    +0.000 OA
ATOM     25  O   UNL     1       3.522  -0.400   0.000  0.00  0.00    +0.000 OA
ATOM     26  O   UNL     1       2.093   0.425   0.000  0.00  0.00    +0.000 OA
ATOM     27  O   UNL     1       2.093   2.075   0.000  0.00  0.00    +0.000 OA
ATOM     28  C   UNL     1       4.236   0.837   0.000  0.00  0.00    +0.000 C 
ATOM     29  C   UNL     1       3.522   0.425   0.000  0.00  0.00    +0.000 C 
ATOM     30  C   UNL     1       2.808   0.837   0.000  0.00  0.00    +0.000 C 
ATOM     31  C   UNL     1       2.808   1.662   0.000  0.00  0.00    +0.000 C 
ATOM     32  C   UNL     1       3.522   2.075   0.000  0.00  0.00    +0.000 C 
ENDBRANCH  23  28
ENDBRANCH  22  23
ENDBRANCH   5  21
BRANCH  13  35
ATOM     33  O   UNL     1      12.142  -2.898   0.000  0.00  0.00    +0.000 OA
ATOM     34  O   UNL     1      13.574  -2.079   0.000  0.00  0.00    +0.000 OA
ATOM     35  C   UNL     1      11.436  -0.833   0.000  0.00  0.00    +0.000 A 
ATOM     36  C   UNL     1      11.432  -1.658   0.000  0.00  0.00    +0.000 A 
ATOM     37  C   UNL     1      12.152  -0.423   0.000  0.00  0.00    +0.000 A 
ATOM     38  C   UNL     1      12.145  -2.073   0.000  0.00  0.00    +0.000 A 
ATOM     39  C   UNL     1      12.864  -0.838   0.000  0.00  0.00    +0.000 A 
ATOM     40  C   UNL     1      12.861  -1.663   0.000  0.00  0.00    +0.000 A 
ENDBRANCH  13  35
TORSDOF 4
