REMARK  Name = 44259684
REMARK  10 active torsions:
REMARK  status: ('A' for Active; 'I' for Inactive)
REMARK    1  A    between atoms: O_1  and  C_19
REMARK    2  A    between atoms: O_1  and  C_22
REMARK    3  A    between atoms: O_6  and  C_28
REMARK    4  A    between atoms: O_6  and  C_31
REMARK    5  A    between atoms: O_14  and  C_37
REMARK    6  A    between atoms: O_15  and  C_38
REMARK    7  A    between atoms: O_18  and  C_45
REMARK    8  A    between atoms: C_21  and  C_29
REMARK    9  A    between atoms: C_27  and  C_30
REMARK   10  A    between atoms: C_32  and  C_35
REMARK                            x       y       z     vdW  Elec       q    Type
REMARK                         _______ _______ _______ _____ _____    ______ ____
ROOT
ATOM      1  O   UNL     1       2.808   1.014   0.000  0.00  0.00    +0.000 OA
ATOM      2  C   UNL     1       4.951   1.427   0.000  0.00  0.00    +0.000 A 
ATOM      3  C   UNL     1       4.951   2.252   0.000  0.00  0.00    +0.000 A 
ATOM      4  C   UNL     1       4.236   1.014   0.000  0.00  0.00    +0.000 A 
ATOM      5  C   UNL     1       4.236   2.664   0.000  0.00  0.00    +0.000 A 
ATOM      6  C   UNL     1       3.522   1.427   0.000  0.00  0.00    +0.000 A 
ATOM      7  C   UNL     1       3.522   2.252   0.000  0.00  0.00    +0.000 A 
ENDROOT
BRANCH   3  11
ATOM      8  O   UNL     1       6.380   2.252   0.000  0.00  0.00    +0.000 OA
ATOM      9  O   UNL     1       6.380   4.727   0.000  0.00  0.00    +0.000 OA
ATOM     10  O   UNL     1       7.822   4.755   0.000  0.00  0.00    +0.000 OA
ATOM     11  C   UNL     1       5.665   2.664   0.000  0.00  0.00    +0.000 A 
ATOM     12  C   UNL     1       5.665   3.489   0.000  0.00  0.00    +0.000 A 
ATOM     13  C   UNL     1       7.094   2.664   0.000  0.00  0.00    +0.000 A 
ATOM     14  C   UNL     1       6.380   3.902   0.000  0.00  0.00    +0.000 A 
ATOM     15  C   UNL     1       7.094   3.489   0.000  0.00  0.00    +0.000 A 
ATOM     16  C   UNL     1       7.832   2.223   0.000  0.00  0.00    +0.000 A 
ATOM     17  C   UNL     1       7.832   3.930   0.000  0.00  0.00    +0.000 A 
ATOM     18  C   UNL     1       8.579   2.647   0.000  0.00  0.00    +0.000 A 
ATOM     19  C   UNL     1       8.579   3.507   0.000  0.00  0.00    +0.000 A 
BRANCH  12  20
ATOM     20  O   UNL     1       4.951   3.902   0.000  0.00  0.00    +0.000 OA
ATOM     21  C   UNL     1       4.236   3.489   0.000  0.00  0.00    +0.000 C 
ENDBRANCH  12  20
BRANCH  18  22
ATOM     22  O   UNL     1       9.292   2.232   0.000  0.00  0.00    +0.000 OA
ATOM     23  C   UNL     1      10.008   2.642   0.000  0.00  0.00    +0.000 C 
ENDBRANCH  18  22
ENDBRANCH   3  11
BRANCH   7  24
ATOM     24  O   UNL     1       2.808   2.664   0.000  0.00  0.00    +0.000 OA
ATOM     25  C   UNL     1       2.093   2.252   0.000  0.00  0.00    +0.000 C 
ENDBRANCH   7  24
BRANCH   2  26
ATOM     26  O   UNL     1       5.665   1.014   0.000  0.00  0.00    +0.000 OA
BRANCH  26  34
ATOM     27  O   UNL     1       4.951  -0.223   0.000  0.00  0.00    +0.000 OA
ATOM     28  O   UNL     1       7.094  -1.461   0.000  0.00  0.00    +0.000 OA
ATOM     29  O   UNL     1       7.094   0.189   0.000  0.00  0.00    +0.000 OA
ATOM     30  C   UNL     1       5.665  -1.461   0.000  0.00  0.00    +0.000 C 
ATOM     31  C   UNL     1       6.380  -1.048   0.000  0.00  0.00    +0.000 C 
ATOM     32  C   UNL     1       4.951  -1.048   0.000  0.00  0.00    +0.000 C 
ATOM     33  C   UNL     1       6.380  -0.223   0.000  0.00  0.00    +0.000 C 
ATOM     34  C   UNL     1       5.665   0.189   0.000  0.00  0.00    +0.000 C 
BRANCH  32  36
ATOM     35  O   UNL     1       3.522  -1.048   0.000  0.00  0.00    +0.000 OA
ATOM     36  C   UNL     1       4.236  -1.461   0.000  0.00  0.00    +0.000 C 
ENDBRANCH  32  36
BRANCH  30  37
ATOM     37  O   UNL     1       5.665  -2.286   0.000  0.00  0.00    +0.000 OA
BRANCH  37  42
ATOM     38  O   UNL     1       4.236  -2.286   0.000  0.00  0.00    +0.000 OA
ATOM     39  O   UNL     1       5.665  -3.936   0.000  0.00  0.00    +0.000 OA
ATOM     40  O   UNL     1       4.236  -4.761   0.000  0.00  0.00    +0.000 OA
ATOM     41  O   UNL     1       2.808  -3.936   0.000  0.00  0.00    +0.000 OA
ATOM     42  C   UNL     1       4.951  -2.698   0.000  0.00  0.00    +0.000 C 
ATOM     43  C   UNL     1       4.951  -3.523   0.000  0.00  0.00    +0.000 C 
ATOM     44  C   UNL     1       4.236  -3.936   0.000  0.00  0.00    +0.000 C 
ATOM     45  C   UNL     1       3.522  -3.523   0.000  0.00  0.00    +0.000 C 
ATOM     46  C   UNL     1       3.522  -2.698   0.000  0.00  0.00    +0.000 C 
BRANCH  46  48
ATOM     47  O   UNL     1       2.093  -2.698   0.000  0.00  0.00    +0.000 OA
ATOM     48  C   UNL     1       2.808  -2.286   0.000  0.00  0.00    +0.000 C 
ENDBRANCH  46  48
ENDBRANCH  37  42
ENDBRANCH  30  37
ENDBRANCH  26  34
ENDBRANCH   2  26
TORSDOF 10
