REMARK  Name = 44260058
REMARK  12 active torsions:
REMARK  status: ('A' for Active; 'I' for Inactive)
REMARK    1  A    between atoms: O_2  and  C_24
REMARK    2  A    between atoms: O_2  and  C_30
REMARK    3  A    between atoms: O_3  and  C_29
REMARK    4  A    between atoms: O_3  and  C_31
REMARK    5  A    between atoms: O_8  and  C_28
REMARK    6  A    between atoms: O_8  and  C_41
REMARK    7  A    between atoms: O_19  and  C_48
REMARK    8  A    between atoms: O_20  and  C_51
REMARK    9  A    between atoms: O_22  and  C_53
REMARK   10  A    between atoms: C_26  and  C_29
REMARK   11  A    between atoms: C_36  and  C_40
REMARK   12  A    between atoms: C_42  and  C_46
REMARK                            x       y       z     vdW  Elec       q    Type
REMARK                         _______ _______ _______ _____ _____    ______ ____
ROOT
ATOM      1  O   UNL     1       5.993  -0.285   0.000  0.00  0.00    +0.000 OA
ATOM      2  O   UNL     1       6.707  -2.347   0.000  0.00  0.00    +0.000 OA
ATOM      3  O   UNL     1       8.136   0.128   0.000  0.00  0.00    +0.000 OA
ATOM      4  C   UNL     1       7.422  -1.110   0.000  0.00  0.00    +0.000 C 
ATOM      5  C   UNL     1       6.707  -1.522   0.000  0.00  0.00    +0.000 C 
ATOM      6  C   UNL     1       5.993  -1.110   0.000  0.00  0.00    +0.000 C 
ATOM      7  C   UNL     1       7.422  -0.285   0.000  0.00  0.00    +0.000 C 
ATOM      8  C   UNL     1       6.707   0.128   0.000  0.00  0.00    +0.000 C 
ENDROOT
BRANCH   4   9
ATOM      9  O   UNL     1       8.136  -1.522   0.000  0.00  0.00    +0.000 OA
BRANCH   9  14
ATOM     10  O   UNL     1       8.851  -0.285   0.000  0.00  0.00    +0.000 OA
ATOM     11  O   UNL     1       9.565  -2.347   0.000  0.00  0.00    +0.000 OA
ATOM     12  O   UNL     1      10.994  -1.522   0.000  0.00  0.00    +0.000 OA
ATOM     13  O   UNL     1      10.994   0.128   0.000  0.00  0.00    +0.000 OA
ATOM     14  C   UNL     1       8.851  -1.110   0.000  0.00  0.00    +0.000 C 
ATOM     15  C   UNL     1       9.565  -1.522   0.000  0.00  0.00    +0.000 C 
ATOM     16  C   UNL     1      10.280  -1.110   0.000  0.00  0.00    +0.000 C 
ATOM     17  C   UNL     1      10.280  -0.285   0.000  0.00  0.00    +0.000 C 
ATOM     18  C   UNL     1       9.565   0.128   0.000  0.00  0.00    +0.000 C 
ENDBRANCH   9  14
ENDBRANCH   4   9
BRANCH   8  19
ATOM     19  O   UNL     1       6.707   0.953   0.000  0.00  0.00    +0.000 OA
BRANCH  19  24
ATOM     20  O   UNL     1       5.278   2.603   0.000  0.00  0.00    +0.000 OA
ATOM     21  O   UNL     1       5.278   0.128   0.000  0.00  0.00    +0.000 OA
ATOM     22  O   UNL     1       3.836   0.099   0.000  0.00  0.00    +0.000 OA
ATOM     23  O   UNL     1       2.366   2.623   0.000  0.00  0.00    +0.000 OA
ATOM     24  C   UNL     1       5.993   1.365   0.000  0.00  0.00    +0.000 A 
ATOM     25  C   UNL     1       5.993   2.190   0.000  0.00  0.00    +0.000 A 
ATOM     26  C   UNL     1       5.278   0.953   0.000  0.00  0.00    +0.000 A 
ATOM     27  C   UNL     1       4.564   1.365   0.000  0.00  0.00    +0.000 A 
ATOM     28  C   UNL     1       4.564   2.190   0.000  0.00  0.00    +0.000 A 
ATOM     29  C   UNL     1       3.826   0.924   0.000  0.00  0.00    +0.000 A 
ATOM     30  C   UNL     1       3.826   2.631   0.000  0.00  0.00    +0.000 A 
ATOM     31  C   UNL     1       3.079   1.348   0.000  0.00  0.00    +0.000 A 
ATOM     32  C   UNL     1       3.079   2.208   0.000  0.00  0.00    +0.000 A 
BRANCH  25  34
ATOM     33  O   UNL     1       8.851   3.840   0.000  0.00  0.00    +0.000 OA
ATOM     34  C   UNL     1       6.707   2.603   0.000  0.00  0.00    +0.000 A 
ATOM     35  C   UNL     1       6.707   3.428   0.000  0.00  0.00    +0.000 A 
ATOM     36  C   UNL     1       7.422   2.190   0.000  0.00  0.00    +0.000 A 
ATOM     37  C   UNL     1       7.422   3.840   0.000  0.00  0.00    +0.000 A 
ATOM     38  C   UNL     1       8.136   2.603   0.000  0.00  0.00    +0.000 A 
ATOM     39  C   UNL     1       8.136   3.428   0.000  0.00  0.00    +0.000 A 
BRANCH  37  40
ATOM     40  O   UNL     1       7.422   4.665   0.000  0.00  0.00    +0.000 OA
ATOM     41  C   UNL     1       6.707   5.078   0.000  0.00  0.00    +0.000 C 
ENDBRANCH  37  40
ENDBRANCH  25  34
BRANCH  30  42
ATOM     42  O   UNL     1       3.836   3.456   0.000  0.00  0.00    +0.000 OA
ATOM     43  C   UNL     1       3.126   3.877   0.000  0.00  0.00    +0.000 C 
ENDBRANCH  30  42
BRANCH  31  44
ATOM     44  O   UNL     1       2.366   0.933   0.000  0.00  0.00    +0.000 OA
ATOM     45  C   UNL     1       1.650   1.343   0.000  0.00  0.00    +0.000 C 
ENDBRANCH  31  44
ENDBRANCH  19  24
ENDBRANCH   8  19
BRANCH   6  46
ATOM     46  C   UNL     1       5.278  -1.522   0.000  0.00  0.00    +0.000 C 
BRANCH  46  47
ATOM     47  O   UNL     1       5.278  -2.347   0.000  0.00  0.00    +0.000 OA
BRANCH  47  52
ATOM     48  O   UNL     1       3.849  -2.347   0.000  0.00  0.00    +0.000 OA
ATOM     49  O   UNL     1       5.278  -3.997   0.000  0.00  0.00    +0.000 OA
ATOM     50  O   UNL     1       3.849  -4.822   0.000  0.00  0.00    +0.000 OA
ATOM     51  O   UNL     1       2.421  -3.997   0.000  0.00  0.00    +0.000 OA
ATOM     52  C   UNL     1       4.564  -2.760   0.000  0.00  0.00    +0.000 C 
ATOM     53  C   UNL     1       4.564  -3.585   0.000  0.00  0.00    +0.000 C 
ATOM     54  C   UNL     1       3.849  -3.997   0.000  0.00  0.00    +0.000 C 
ATOM     55  C   UNL     1       3.135  -3.585   0.000  0.00  0.00    +0.000 C 
ATOM     56  C   UNL     1       3.135  -2.760   0.000  0.00  0.00    +0.000 C 
BRANCH  56  58
ATOM     57  O   UNL     1       2.421  -1.522   0.000  0.00  0.00    +0.000 OA
ATOM     58  C   UNL     1       2.421  -2.347   0.000  0.00  0.00    +0.000 C 
ENDBRANCH  56  58
ENDBRANCH  47  52
ENDBRANCH  46  47
ENDBRANCH   6  46
TORSDOF 12
