REMARK  Name = 44259002
REMARK  10 active torsions:
REMARK  status: ('A' for Active; 'I' for Inactive)
REMARK    1  A    between atoms: O_2  and  C_24
REMARK    2  A    between atoms: O_2  and  C_34
REMARK    3  A    between atoms: O_4  and  C_32
REMARK    4  A    between atoms: O_4  and  C_35
REMARK    5  A    between atoms: O_5  and  C_28
REMARK    6  A    between atoms: O_5  and  C_40
REMARK    7  A    between atoms: O_9  and  C_30
REMARK    8  A    between atoms: O_9  and  C_47
REMARK    9  A    between atoms: C_26  and  C_35
REMARK   10  A    between atoms: C_48  and  C_51
REMARK                            x       y       z     vdW  Elec       q    Type
REMARK                         _______ _______ _______ _____ _____    ______ ____
ROOT
ATOM      1  O   UNL     1       9.952   0.177   0.000  0.00  0.00    +0.000 OA
ATOM      2  O   UNL     1       9.952  -2.298   0.000  0.00  0.00    +0.000 OA
ATOM      3  O   UNL     1       8.523  -1.473   0.000  0.00  0.00    +0.000 OA
ATOM      4  C   UNL     1      10.667  -1.061   0.000  0.00  0.00    +0.000 C 
ATOM      5  C   UNL     1       9.952  -1.473   0.000  0.00  0.00    +0.000 C 
ATOM      6  C   UNL     1       9.238  -0.236   0.000  0.00  0.00    +0.000 C 
ATOM      7  C   UNL     1       9.238  -1.061   0.000  0.00  0.00    +0.000 C 
ATOM      8  C   UNL     1      10.667  -0.236   0.000  0.00  0.00    +0.000 C 
ENDROOT
BRANCH   4   9
ATOM      9  O   UNL     1      11.381  -1.473   0.000  0.00  0.00    +0.000 OA
BRANCH   9  14
ATOM     10  O   UNL     1      10.667  -2.711   0.000  0.00  0.00    +0.000 OA
ATOM     11  O   UNL     1      12.810  -2.298   0.000  0.00  0.00    +0.000 OA
ATOM     12  O   UNL     1      12.810  -3.948   0.000  0.00  0.00    +0.000 OA
ATOM     13  O   UNL     1      11.381  -4.773   0.000  0.00  0.00    +0.000 OA
ATOM     14  C   UNL     1      11.381  -2.298   0.000  0.00  0.00    +0.000 C 
ATOM     15  C   UNL     1      12.096  -2.711   0.000  0.00  0.00    +0.000 C 
ATOM     16  C   UNL     1      12.096  -3.536   0.000  0.00  0.00    +0.000 C 
ATOM     17  C   UNL     1      11.381  -3.948   0.000  0.00  0.00    +0.000 C 
ATOM     18  C   UNL     1      10.667  -3.536   0.000  0.00  0.00    +0.000 C 
ATOM     19  C   UNL     1       9.952  -3.948   0.000  0.00  0.00    +0.000 C 
ENDBRANCH   9  14
ENDBRANCH   4   9
BRANCH   8  20
ATOM     20  O   UNL     1      11.381   0.177   0.000  0.00  0.00    +0.000 OA
BRANCH  20  25
ATOM     21  O   UNL     1      12.096   2.239   0.000  0.00  0.00    +0.000 OA
ATOM     22  O   UNL     1       9.952   1.002   0.000  0.00  0.00    +0.000 OA
ATOM     23  O   UNL     1       9.206   2.237   0.000  0.00  0.00    +0.000 OA
ATOM     24  O   UNL     1      10.657   4.771   0.000  0.00  0.00    +0.000 OA
ATOM     25  C   UNL     1      11.381   1.002   0.000  0.00  0.00    +0.000 A 
ATOM     26  C   UNL     1      12.096   1.414   0.000  0.00  0.00    +0.000 A 
ATOM     27  C   UNL     1      10.667   1.414   0.000  0.00  0.00    +0.000 A 
ATOM     28  C   UNL     1      10.667   2.239   0.000  0.00  0.00    +0.000 A 
ATOM     29  C   UNL     1      11.381   2.652   0.000  0.00  0.00    +0.000 A 
ATOM     30  C   UNL     1       9.916   2.658   0.000  0.00  0.00    +0.000 A 
ATOM     31  C   UNL     1      11.394   3.511   0.000  0.00  0.00    +0.000 A 
ATOM     32  C   UNL     1       9.909   3.517   0.000  0.00  0.00    +0.000 A 
ATOM     33  C   UNL     1      10.653   3.946   0.000  0.00  0.00    +0.000 A 
BRANCH  26  35
ATOM     34  O   UNL     1      14.954  -0.236   0.000  0.00  0.00    +0.000 OA
ATOM     35  C   UNL     1      12.810   1.002   0.000  0.00  0.00    +0.000 A 
ATOM     36  C   UNL     1      12.810   0.177   0.000  0.00  0.00    +0.000 A 
ATOM     37  C   UNL     1      13.524   1.414   0.000  0.00  0.00    +0.000 A 
ATOM     38  C   UNL     1      13.524  -0.236   0.000  0.00  0.00    +0.000 A 
ATOM     39  C   UNL     1      14.239   1.002   0.000  0.00  0.00    +0.000 A 
ATOM     40  C   UNL     1      14.239   0.177   0.000  0.00  0.00    +0.000 A 
ENDBRANCH  26  35
ENDBRANCH  20  25
ENDBRANCH   8  20
BRANCH   6  41
ATOM     41  C   UNL     1       8.523   0.177   0.000  0.00  0.00    +0.000 C 
BRANCH  41  42
ATOM     42  O   UNL     1       7.809  -0.236   0.000  0.00  0.00    +0.000 OA
BRANCH  42  49
ATOM     43  O   UNL     1       7.094   1.002   0.000  0.00  0.00    +0.000 OA
ATOM     44  O   UNL     1       6.380  -1.061   0.000  0.00  0.00    +0.000 OA
ATOM     45  O   UNL     1       4.951   1.414   0.000  0.00  0.00    +0.000 OA
ATOM     46  C   UNL     1       5.665   0.177   0.000  0.00  0.00    +0.000 C 
ATOM     47  C   UNL     1       6.380  -0.236   0.000  0.00  0.00    +0.000 C 
ATOM     48  C   UNL     1       5.665   1.002   0.000  0.00  0.00    +0.000 C 
ATOM     49  C   UNL     1       7.094   0.177   0.000  0.00  0.00    +0.000 C 
ATOM     50  C   UNL     1       6.380   1.414   0.000  0.00  0.00    +0.000 C 
ATOM     51  C   UNL     1       6.380   2.239   0.000  0.00  0.00    +0.000 C 
BRANCH  46  52
ATOM     52  O   UNL     1       4.951  -0.236   0.000  0.00  0.00    +0.000 OA
BRANCH  52  57
ATOM     53  O   UNL     1       4.236   1.002   0.000  0.00  0.00    +0.000 OA
ATOM     54  O   UNL     1       3.522  -1.061   0.000  0.00  0.00    +0.000 OA
ATOM     55  O   UNL     1       2.093  -0.236   0.000  0.00  0.00    +0.000 OA
ATOM     56  O   UNL     1       2.093   1.414   0.000  0.00  0.00    +0.000 OA
ATOM     57  C   UNL     1       4.236   0.177   0.000  0.00  0.00    +0.000 C 
ATOM     58  C   UNL     1       3.522  -0.236   0.000  0.00  0.00    +0.000 C 
ATOM     59  C   UNL     1       2.808   0.177   0.000  0.00  0.00    +0.000 C 
ATOM     60  C   UNL     1       2.808   1.002   0.000  0.00  0.00    +0.000 C 
ATOM     61  C   UNL     1       3.522   1.414   0.000  0.00  0.00    +0.000 C 
ENDBRANCH  52  57
ENDBRANCH  46  52
ENDBRANCH  42  49
ENDBRANCH  41  42
ENDBRANCH   6  41
TORSDOF 10
