REMARK  Name = 131833356
REMARK  10 active torsions:
REMARK  status: ('A' for Active; 'I' for Inactive)
REMARK    1  A    between atoms: O_3  and  C_36
REMARK    2  A    between atoms: O_3  and  C_43
REMARK    3  A    between atoms: O_4  and  C_40
REMARK    4  A    between atoms: O_4  and  C_50
REMARK    5  A    between atoms: C_27  and  C_30
REMARK    6  A    between atoms: C_28  and  C_32
REMARK    7  A    between atoms: C_37  and  C_46
REMARK    8  A    between atoms: C_39  and  C_48
REMARK    9  A    between atoms: C_55  and  C_59
REMARK   10  A    between atoms: C_57  and  C_60
REMARK                            x       y       z     vdW  Elec       q    Type
REMARK                         _______ _______ _______ _____ _____    ______ ____
ROOT
ATOM      1  O   UNL     1       5.701   1.188   0.000  0.00  0.00    +0.000 OA
ATOM      2  O   UNL     1       8.196   1.026   0.000  0.00  0.00    +0.000 OA
ATOM      3  C   UNL     1       6.572  -1.165   0.000  0.00  0.00    +0.000 A 
ATOM      4  C   UNL     1       5.477  -0.247   0.000  0.00  0.00    +0.000 A 
ATOM      5  C   UNL     1       5.759  -1.022   0.000  0.00  0.00    +0.000 A 
ATOM      6  C   UNL     1       7.102  -0.533   0.000  0.00  0.00    +0.000 A 
ATOM      7  C   UNL     1       6.007   0.385   0.000  0.00  0.00    +0.000 A 
ATOM      8  C   UNL     1       6.819   0.242   0.000  0.00  0.00    +0.000 A 
ATOM      9  C   UNL     1       7.382   0.892   0.000  0.00  0.00    +0.000 A 
ATOM     10  C   UNL     1       6.248   1.851   0.000  0.00  0.00    +0.000 A 
ATOM     11  C   UNL     1       7.094   1.701   0.000  0.00  0.00    +0.000 A 
ENDROOT
BRANCH   3  16
ATOM     12  O   UNL     1       6.323  -2.573   0.000  0.00  0.00    +0.000 OA
ATOM     13  O   UNL     1       8.196  -1.452   0.000  0.00  0.00    +0.000 OA
ATOM     14  O   UNL     1       8.761  -3.002   0.000  0.00  0.00    +0.000 OA
ATOM     15  O   UNL     1       7.700  -4.266   0.000  0.00  0.00    +0.000 OA
ATOM     16  C   UNL     1       6.854  -1.941   0.000  0.00  0.00    +0.000 C 
ATOM     17  C   UNL     1       7.666  -2.084   0.000  0.00  0.00    +0.000 C 
ATOM     18  C   UNL     1       7.948  -2.859   0.000  0.00  0.00    +0.000 C 
ATOM     19  C   UNL     1       7.418  -3.491   0.000  0.00  0.00    +0.000 C 
ATOM     20  C   UNL     1       6.605  -3.348   0.000  0.00  0.00    +0.000 C 
BRANCH  20  22
ATOM     21  O   UNL     1       6.357  -4.755   0.000  0.00  0.00    +0.000 OA
ATOM     22  C   UNL     1       6.075  -3.980   0.000  0.00  0.00    +0.000 C 
ENDBRANCH  20  22
ENDBRANCH   3  16
BRANCH   4  27
ATOM     23  O   UNL     1       4.134  -0.736   0.000  0.00  0.00    +0.000 OA
ATOM     24  O   UNL     1       4.912   1.304   0.000  0.00  0.00    +0.000 OA
ATOM     25  O   UNL     1       3.288   1.590   0.000  0.00  0.00    +0.000 OA
ATOM     26  O   UNL     1       2.227   0.326   0.000  0.00  0.00    +0.000 OA
ATOM     27  C   UNL     1       4.664  -0.104   0.000  0.00  0.00    +0.000 C 
ATOM     28  C   UNL     1       4.382   0.672   0.000  0.00  0.00    +0.000 C 
ATOM     29  C   UNL     1       3.570   0.815   0.000  0.00  0.00    +0.000 C 
ATOM     30  C   UNL     1       3.039   0.183   0.000  0.00  0.00    +0.000 C 
ATOM     31  C   UNL     1       3.322  -0.592   0.000  0.00  0.00    +0.000 C 
BRANCH  31  33
ATOM     32  O   UNL     1       1.979  -1.081   0.000  0.00  0.00    +0.000 OA
ATOM     33  C   UNL     1       2.791  -1.224   0.000  0.00  0.00    +0.000 C 
ENDBRANCH  31  33
ENDBRANCH   4  27
BRANCH  10  36
ATOM     34  O   UNL     1       6.734   4.667   0.000  0.00  0.00    +0.000 OA
ATOM     35  O   UNL     1       5.107   4.947   0.000  0.00  0.00    +0.000 OA
ATOM     36  C   UNL     1       5.963   2.625   0.000  0.00  0.00    +0.000 A 
ATOM     37  C   UNL     1       6.491   3.259   0.000  0.00  0.00    +0.000 A 
ATOM     38  C   UNL     1       5.150   2.765   0.000  0.00  0.00    +0.000 A 
ATOM     39  C   UNL     1       6.206   4.033   0.000  0.00  0.00    +0.000 A 
ATOM     40  C   UNL     1       4.865   3.539   0.000  0.00  0.00    +0.000 A 
ATOM     41  C   UNL     1       5.393   4.173   0.000  0.00  0.00    +0.000 A 
ENDBRANCH  10  36
BRANCH   5  42
ATOM     42  O   UNL     1       5.229  -1.654   0.000  0.00  0.00    +0.000 OA
BRANCH  42  47
ATOM     43  O   UNL     1       3.800  -1.654   0.000  0.00  0.00    +0.000 OA
ATOM     44  O   UNL     1       5.229  -3.304   0.000  0.00  0.00    +0.000 OA
ATOM     45  O   UNL     1       3.800  -4.129   0.000  0.00  0.00    +0.000 OA
ATOM     46  O   UNL     1       2.371  -3.304   0.000  0.00  0.00    +0.000 OA
ATOM     47  C   UNL     1       4.514  -2.067   0.000  0.00  0.00    +0.000 C 
ATOM     48  C   UNL     1       4.514  -2.892   0.000  0.00  0.00    +0.000 C 
ATOM     49  C   UNL     1       3.800  -3.304   0.000  0.00  0.00    +0.000 C 
ATOM     50  C   UNL     1       3.085  -2.892   0.000  0.00  0.00    +0.000 C 
ATOM     51  C   UNL     1       3.085  -2.067   0.000  0.00  0.00    +0.000 C 
ATOM     52  C   UNL     1       2.371  -1.654   0.000  0.00  0.00    +0.000 C 
ENDBRANCH  42  47
ENDBRANCH   5  42
BRANCH   6  53
ATOM     53  O   UNL     1       7.914  -0.677   0.000  0.00  0.00    +0.000 OA
BRANCH  53  58
ATOM     54  O   UNL     1       8.629   0.561   0.000  0.00  0.00    +0.000 OA
ATOM     55  O   UNL     1       9.343  -1.502   0.000  0.00  0.00    +0.000 OA
ATOM     56  O   UNL     1      10.772  -0.677   0.000  0.00  0.00    +0.000 OA
ATOM     57  O   UNL     1      10.772   0.973   0.000  0.00  0.00    +0.000 OA
ATOM     58  C   UNL     1       8.629  -0.264   0.000  0.00  0.00    +0.000 C 
ATOM     59  C   UNL     1       9.343  -0.677   0.000  0.00  0.00    +0.000 C 
ATOM     60  C   UNL     1      10.058  -0.264   0.000  0.00  0.00    +0.000 C 
ATOM     61  C   UNL     1      10.058   0.561   0.000  0.00  0.00    +0.000 C 
ATOM     62  C   UNL     1       9.343   0.973   0.000  0.00  0.00    +0.000 C 
BRANCH  62  65
ATOM     63  O   UNL     1       8.629   2.211   0.000  0.00  0.00    +0.000 OA
ATOM     64  O   UNL     1      10.058   2.211   0.000  0.00  0.00    +0.000 OA
ATOM     65  C   UNL     1       9.343   1.798   0.000  0.00  0.00    +0.000 C 
ENDBRANCH  62  65
ENDBRANCH  53  58
ENDBRANCH   6  53
TORSDOF 10
