REMARK  Name = 44257033
REMARK  9 active torsions:
REMARK  status: ('A' for Active; 'I' for Inactive)
REMARK    1  A    between atoms: O_2  and  C_21
REMARK    2  A    between atoms: O_2  and  C_23
REMARK    3  A    between atoms: O_6  and  C_22
REMARK    4  A    between atoms: O_6  and  C_31
REMARK    5  A    between atoms: C_19  and  C_22
REMARK    6  A    between atoms: C_25  and  C_30
REMARK    7  A    between atoms: C_31  and  C_38
REMARK    8  A    between atoms: C_33  and  C_40
REMARK    9  A    between atoms: C_38  and  C_43
REMARK                            x       y       z     vdW  Elec       q    Type
REMARK                         _______ _______ _______ _____ _____    ______ ____
ROOT
ATOM      1  O   UNL     1       9.702   0.580   0.000  0.00  0.00    +0.000 OA
ATOM      2  O   UNL     1       6.997   1.546   0.000  0.00  0.00    +0.000 OA
ATOM      3  O   UNL     1       9.216   3.451   0.000  0.00  0.00    +0.000 OA
ATOM      4  C   UNL     1       8.608  -0.339   0.000  0.00  0.00    +0.000 A 
ATOM      5  C   UNL     1       8.077   0.293   0.000  0.00  0.00    +0.000 A 
ATOM      6  C   UNL     1       9.420  -0.195   0.000  0.00  0.00    +0.000 A 
ATOM      7  C   UNL     1       8.360   1.069   0.000  0.00  0.00    +0.000 A 
ATOM      8  C   UNL     1       9.172   1.212   0.000  0.00  0.00    +0.000 A 
ATOM      9  C   UNL     1       7.797   1.718   0.000  0.00  0.00    +0.000 A 
ATOM     10  C   UNL     1       7.272   0.150   0.000  0.00  0.00    +0.000 A 
ATOM     11  C   UNL     1       9.478   2.015   0.000  0.00  0.00    +0.000 A 
ATOM     12  C   UNL     1       6.737   0.770   0.000  0.00  0.00    +0.000 A 
ATOM     13  C   UNL     1       8.085   2.528   0.000  0.00  0.00    +0.000 A 
ATOM     14  C   UNL     1       8.931   2.677   0.000  0.00  0.00    +0.000 A 
ENDROOT
BRANCH   6  17
ATOM     15  O   UNL     1       9.916  -3.010   0.000  0.00  0.00    +0.000 OA
ATOM     16  O   UNL     1      11.541  -2.723   0.000  0.00  0.00    +0.000 OA
ATOM     17  C   UNL     1       9.950  -0.827   0.000  0.00  0.00    +0.000 A 
ATOM     18  C   UNL     1       9.668  -1.603   0.000  0.00  0.00    +0.000 A 
ATOM     19  C   UNL     1      10.763  -0.684   0.000  0.00  0.00    +0.000 A 
ATOM     20  C   UNL     1      10.198  -2.235   0.000  0.00  0.00    +0.000 A 
ATOM     21  C   UNL     1      11.293  -1.316   0.000  0.00  0.00    +0.000 A 
ATOM     22  C   UNL     1      11.011  -2.091   0.000  0.00  0.00    +0.000 A 
ENDBRANCH   6  17
BRANCH  12  25
ATOM     23  O   UNL     1       5.385   1.232   0.000  0.00  0.00    +0.000 OA
ATOM     24  O   UNL     1       5.661  -0.170   0.000  0.00  0.00    +0.000 OA
ATOM     25  C   UNL     1       5.928   0.611   0.000  0.00  0.00    +0.000 C 
ENDBRANCH  12  25
BRANCH   4  26
ATOM     26  O   UNL     1       8.325  -1.114   0.000  0.00  0.00    +0.000 OA
BRANCH  26  35
ATOM     27  O   UNL     1       6.896  -1.114   0.000  0.00  0.00    +0.000 OA
ATOM     28  O   UNL     1       5.468  -2.764   0.000  0.00  0.00    +0.000 OA
ATOM     29  O   UNL     1       6.896  -3.589   0.000  0.00  0.00    +0.000 OA
ATOM     30  O   UNL     1       8.325  -2.764   0.000  0.00  0.00    +0.000 OA
ATOM     31  C   UNL     1       6.182  -2.351   0.000  0.00  0.00    +0.000 C 
ATOM     32  C   UNL     1       6.896  -2.764   0.000  0.00  0.00    +0.000 C 
ATOM     33  C   UNL     1       6.182  -1.526   0.000  0.00  0.00    +0.000 C 
ATOM     34  C   UNL     1       7.611  -2.351   0.000  0.00  0.00    +0.000 C 
ATOM     35  C   UNL     1       7.611  -1.526   0.000  0.00  0.00    +0.000 C 
BRANCH  33  36
ATOM     36  C   UNL     1       5.370  -1.383   0.000  0.00  0.00    +0.000 C 
BRANCH  36  37
ATOM     37  O   UNL     1       4.839  -2.015   0.000  0.00  0.00    +0.000 OA
BRANCH  37  39
ATOM     38  O   UNL     1       3.745  -1.097   0.000  0.00  0.00    +0.000 OA
ATOM     39  C   UNL     1       4.027  -1.872   0.000  0.00  0.00    +0.000 C 
BRANCH  39  40
ATOM     40  C   UNL     1       3.496  -2.504   0.000  0.00  0.00    +0.000 C 
BRANCH  40  43
ATOM     41  O   UNL     1       2.154  -2.992   0.000  0.00  0.00    +0.000 OA
ATOM     42  O   UNL     1       2.402  -1.585   0.000  0.00  0.00    +0.000 OA
ATOM     43  C   UNL     1       2.684  -2.361   0.000  0.00  0.00    +0.000 C 
ENDBRANCH  40  43
ENDBRANCH  39  40
ENDBRANCH  37  39
ENDBRANCH  36  37
ENDBRANCH  33  36
ENDBRANCH  26  35
ENDBRANCH   4  26
TORSDOF 9
