REMARK  Name = 13845923
REMARK  7 active torsions:
REMARK  status: ('A' for Active; 'I' for Inactive)
REMARK    1  A    between atoms: S_1  and  O_4
REMARK    2  A    between atoms: S_2  and  O_9
REMARK    3  A    between atoms: O_4  and  C_25
REMARK    4  A    between atoms: O_5  and  C_24
REMARK    5  A    between atoms: O_7  and  C_28
REMARK    6  A    between atoms: O_9  and  C_29
REMARK    7  A    between atoms: C_18  and  C_19
REMARK                            x       y       z     vdW  Elec       q    Type
REMARK                         _______ _______ _______ _____ _____    ______ ____
ROOT
ATOM      1  O   UNL     1       5.356  -0.146   0.000  0.00  0.00    +0.000 OA
ATOM      2  O   UNL     1       3.904   2.357   0.000  0.00  0.00    +0.000 OA
ATOM      3  O   UNL     1       5.346   2.386   0.000  0.00  0.00    +0.000 OA
ATOM      4  C   UNL     1       4.618   1.120   0.000  0.00  0.00    +0.000 A 
ATOM      5  C   UNL     1       4.618   0.295   0.000  0.00  0.00    +0.000 A 
ATOM      6  C   UNL     1       6.103   0.277   0.000  0.00  0.00    +0.000 A 
ATOM      7  C   UNL     1       3.904   1.532   0.000  0.00  0.00    +0.000 A 
ATOM      8  C   UNL     1       5.356   1.561   0.000  0.00  0.00    +0.000 A 
ATOM      9  C   UNL     1       3.904  -0.118   0.000  0.00  0.00    +0.000 A 
ATOM     10  C   UNL     1       6.103   1.137   0.000  0.00  0.00    +0.000 A 
ATOM     11  C   UNL     1       3.189   1.120   0.000  0.00  0.00    +0.000 A 
ATOM     12  C   UNL     1       3.189   0.295   0.000  0.00  0.00    +0.000 A 
ENDROOT
BRANCH   6  13
ATOM     13  C   UNL     1       6.816  -0.138   0.000  0.00  0.00    +0.000 A 
ATOM     14  C   UNL     1       6.813  -0.963   0.000  0.00  0.00    +0.000 A 
ATOM     15  C   UNL     1       7.532   0.272   0.000  0.00  0.00    +0.000 A 
ATOM     16  C   UNL     1       7.526  -1.378   0.000  0.00  0.00    +0.000 A 
ATOM     17  C   UNL     1       8.242  -0.968   0.000  0.00  0.00    +0.000 A 
ATOM     18  C   UNL     1       8.245  -0.143   0.000  0.00  0.00    +0.000 A 
BRANCH  16  19
ATOM     19  O   UNL     1       7.523  -2.203   0.000  0.00  0.00    +0.000 OA
ATOM     20  C   UNL     1       6.807  -2.613   0.000  0.00  0.00    +0.000 C 
ENDBRANCH  16  19
BRANCH  17  21
ATOM     21  O   UNL     1       8.955  -1.384   0.000  0.00  0.00    +0.000 OA
BRANCH  21  22
ATOM     22  S   UNL     1       9.671  -0.974   0.000  0.00  0.00    +0.000 S 
ATOM     23  O   UNL     1      10.387  -0.564   0.000  0.00  0.00    +0.000 OA
ATOM     24  O   UNL     1      10.081  -1.690   0.000  0.00  0.00    +0.000 OA
ATOM     25  O   UNL     1       9.261  -0.258   0.000  0.00  0.00    +0.000 OA
ENDBRANCH  21  22
ENDBRANCH  17  21
ENDBRANCH   6  13
BRANCH  11  26
ATOM     26  O   UNL     1       2.475   1.532   0.000  0.00  0.00    +0.000 OA
ATOM     27  C   UNL     1       1.760   1.120   0.000  0.00  0.00    +0.000 C 
ENDBRANCH  11  26
BRANCH  12  28
ATOM     28  O   UNL     1       2.475  -0.118   0.000  0.00  0.00    +0.000 OA
BRANCH  28  29
ATOM     29  S   UNL     1       2.475  -0.943   0.000  0.00  0.00    +0.000 S 
ATOM     30  O   UNL     1       2.475  -1.768   0.000  0.00  0.00    +0.000 OA
ATOM     31  O   UNL     1       1.650  -0.943   0.000  0.00  0.00    +0.000 OA
ATOM     32  O   UNL     1       3.300  -0.943   0.000  0.00  0.00    +0.000 OA
ENDBRANCH  28  29
ENDBRANCH  12  28
TORSDOF 7
