REMARK  Name = 5481981
REMARK  8 active torsions:
REMARK  status: ('A' for Active; 'I' for Inactive)
REMARK    1  A    between atoms: O_1  and  C_16
REMARK    2  A    between atoms: O_1  and  C_18
REMARK    3  A    between atoms: O_4  and  C_21
REMARK    4  A    between atoms: O_4  and  C_28
REMARK    5  A    between atoms: C_25  and  C_27
REMARK    6  A    between atoms: C_29  and  C_33
REMARK    7  A    between atoms: C_34  and  C_37
REMARK    8  A    between atoms: C_37  and  C_43
REMARK                            x       y       z     vdW  Elec       q    Type
REMARK                         _______ _______ _______ _____ _____    ______ ____
ROOT
ATOM      1  O   UNL     1       5.665   1.769   0.000  0.00  0.00    +0.000 OA
ATOM      2  O   UNL     1       3.522   0.532   0.000  0.00  0.00    +0.000 OA
ATOM      3  O   UNL     1       2.776   1.766   0.000  0.00  0.00    +0.000 OA
ATOM      4  O   UNL     1       4.226   4.301   0.000  0.00  0.00    +0.000 OA
ATOM      5  C   UNL     1       4.951   0.532   0.000  0.00  0.00    +0.000 A 
ATOM      6  C   UNL     1       5.665   0.944   0.000  0.00  0.00    +0.000 A 
ATOM      7  C   UNL     1       4.236   0.944   0.000  0.00  0.00    +0.000 A 
ATOM      8  C   UNL     1       4.236   1.769   0.000  0.00  0.00    +0.000 A 
ATOM      9  C   UNL     1       4.951   2.182   0.000  0.00  0.00    +0.000 A 
ATOM     10  C   UNL     1       4.964   3.041   0.000  0.00  0.00    +0.000 A 
ATOM     11  C   UNL     1       3.486   2.187   0.000  0.00  0.00    +0.000 A 
ATOM     12  C   UNL     1       4.223   3.476   0.000  0.00  0.00    +0.000 A 
ATOM     13  C   UNL     1       3.479   3.047   0.000  0.00  0.00    +0.000 A 
ENDROOT
BRANCH   6  15
ATOM     14  O   UNL     1       8.523  -0.706   0.000  0.00  0.00    +0.000 OA
ATOM     15  C   UNL     1       6.380   0.532   0.000  0.00  0.00    +0.000 A 
ATOM     16  C   UNL     1       6.380  -0.293   0.000  0.00  0.00    +0.000 A 
ATOM     17  C   UNL     1       7.094   0.944   0.000  0.00  0.00    +0.000 A 
ATOM     18  C   UNL     1       7.094  -0.706   0.000  0.00  0.00    +0.000 A 
ATOM     19  C   UNL     1       7.809   0.532   0.000  0.00  0.00    +0.000 A 
ATOM     20  C   UNL     1       7.809  -0.293   0.000  0.00  0.00    +0.000 A 
ENDBRANCH   6  15
BRANCH   5  21
ATOM     21  O   UNL     1       4.951  -0.293   0.000  0.00  0.00    +0.000 OA
BRANCH  21  28
ATOM     22  O   UNL     1       3.522  -0.293   0.000  0.00  0.00    +0.000 OA
ATOM     23  O   UNL     1       3.522  -2.768   0.000  0.00  0.00    +0.000 OA
ATOM     24  O   UNL     1       2.093  -1.943   0.000  0.00  0.00    +0.000 OA
ATOM     25  C   UNL     1       4.236  -1.531   0.000  0.00  0.00    +0.000 C 
ATOM     26  C   UNL     1       3.522  -1.943   0.000  0.00  0.00    +0.000 C 
ATOM     27  C   UNL     1       2.808  -1.531   0.000  0.00  0.00    +0.000 C 
ATOM     28  C   UNL     1       4.236  -0.706   0.000  0.00  0.00    +0.000 C 
ATOM     29  C   UNL     1       2.808  -0.706   0.000  0.00  0.00    +0.000 C 
ATOM     30  C   UNL     1       2.093  -0.293   0.000  0.00  0.00    +0.000 C 
BRANCH  25  31
ATOM     31  O   UNL     1       4.951  -1.943   0.000  0.00  0.00    +0.000 OA
BRANCH  31  36
ATOM     32  O   UNL     1       4.236  -3.181   0.000  0.00  0.00    +0.000 OA
ATOM     33  O   UNL     1       6.380  -2.768   0.000  0.00  0.00    +0.000 OA
ATOM     34  O   UNL     1       6.380  -4.418   0.000  0.00  0.00    +0.000 OA
ATOM     35  O   UNL     1       4.951  -5.243   0.000  0.00  0.00    +0.000 OA
ATOM     36  C   UNL     1       4.951  -2.768   0.000  0.00  0.00    +0.000 C 
ATOM     37  C   UNL     1       5.665  -3.181   0.000  0.00  0.00    +0.000 C 
ATOM     38  C   UNL     1       5.665  -4.006   0.000  0.00  0.00    +0.000 C 
ATOM     39  C   UNL     1       4.951  -4.418   0.000  0.00  0.00    +0.000 C 
ATOM     40  C   UNL     1       4.236  -4.006   0.000  0.00  0.00    +0.000 C 
BRANCH  40  42
ATOM     41  O   UNL     1       2.808  -4.006   0.000  0.00  0.00    +0.000 OA
ATOM     42  C   UNL     1       3.522  -4.418   0.000  0.00  0.00    +0.000 C 
ENDBRANCH  40  42
ENDBRANCH  31  36
ENDBRANCH  25  31
ENDBRANCH  21  28
ENDBRANCH   5  21
BRANCH  10  43
ATOM     43  C   UNL     1       5.683   3.445   0.000  0.00  0.00    +0.000 C 
BRANCH  43  44
ATOM     44  C   UNL     1       5.693   4.270   0.000  0.00  0.00    +0.000 C 
ATOM     45  C   UNL     1       6.412   4.674   0.000  0.00  0.00    +0.000 C 
ATOM     46  C   UNL     1       6.422   5.499   0.000  0.00  0.00    +0.000 C 
ATOM     47  C   UNL     1       7.122   4.253   0.000  0.00  0.00    +0.000 C 
ENDBRANCH  43  44
ENDBRANCH  10  43
TORSDOF 8
