REMARK  Name = 44258587
REMARK  9 active torsions:
REMARK  status: ('A' for Active; 'I' for Inactive)
REMARK    1  A    between atoms: S_1  and  O_4
REMARK    2  A    between atoms: S_2  and  O_5
REMARK    3  A    between atoms: O_4  and  C_22
REMARK    4  A    between atoms: O_5  and  C_23
REMARK    5  A    between atoms: O_6  and  C_25
REMARK    6  A    between atoms: O_6  and  C_27
REMARK    7  A    between atoms: O_20  and  C_41
REMARK    8  A    between atoms: C_24  and  C_26
REMARK    9  A    between atoms: C_34  and  C_36
REMARK                            x       y       z     vdW  Elec       q    Type
REMARK                         _______ _______ _______ _____ _____    ______ ____
ROOT
ATOM      1  O   UNL     1       6.158   0.000   0.000  0.00  0.00    +0.000 OA
ENDROOT
BRANCH   1   6
ATOM      2  O   UNL     1       7.610   0.796   0.000  0.00  0.00    +0.000 OA
ATOM      3  O   UNL     1       4.729   0.825   0.000  0.00  0.00    +0.000 OA
ATOM      4  O   UNL     1       6.158   3.300   0.000  0.00  0.00    +0.000 OA
ATOM      5  O   UNL     1       7.600   3.329   0.000  0.00  0.00    +0.000 OA
ATOM      6  C   UNL     1       6.158   0.825   0.000  0.00  0.00    +0.000 A 
ATOM      7  C   UNL     1       6.872   1.238   0.000  0.00  0.00    +0.000 A 
ATOM      8  C   UNL     1       5.443   1.238   0.000  0.00  0.00    +0.000 A 
ATOM      9  C   UNL     1       6.872   2.062   0.000  0.00  0.00    +0.000 A 
ATOM     10  C   UNL     1       5.443   2.062   0.000  0.00  0.00    +0.000 A 
ATOM     11  C   UNL     1       6.158   2.475   0.000  0.00  0.00    +0.000 A 
ATOM     12  C   UNL     1       7.610   2.504   0.000  0.00  0.00    +0.000 A 
ATOM     13  C   UNL     1       8.357   1.220   0.000  0.00  0.00    +0.000 A 
ATOM     14  C   UNL     1       8.357   2.080   0.000  0.00  0.00    +0.000 A 
BRANCH  13  15
ATOM     15  C   UNL     1       9.070   0.805   0.000  0.00  0.00    +0.000 A 
ATOM     16  C   UNL     1       9.786   1.215   0.000  0.00  0.00    +0.000 A 
ATOM     17  C   UNL     1       9.067  -0.020   0.000  0.00  0.00    +0.000 A 
ATOM     18  C   UNL     1      10.499   0.800   0.000  0.00  0.00    +0.000 A 
ATOM     19  C   UNL     1       9.780  -0.435   0.000  0.00  0.00    +0.000 A 
ATOM     20  C   UNL     1      10.496  -0.025   0.000  0.00  0.00    +0.000 A 
BRANCH  20  21
ATOM     21  O   UNL     1      11.209  -0.441   0.000  0.00  0.00    +0.000 OA
ATOM     22  C   UNL     1      11.925  -0.031   0.000  0.00  0.00    +0.000 C 
ENDBRANCH  20  21
ENDBRANCH  13  15
ENDBRANCH   1   6
BRANCH   1  29
ATOM     23  O   UNL     1       4.729   0.000   0.000  0.00  0.00    +0.000 OA
ATOM     24  O   UNL     1       4.729  -2.475   0.000  0.00  0.00    +0.000 OA
ATOM     25  C   UNL     1       4.729  -1.650   0.000  0.00  0.00    +0.000 C 
ATOM     26  C   UNL     1       4.014  -1.238   0.000  0.00  0.00    +0.000 C 
ATOM     27  C   UNL     1       5.443  -1.238   0.000  0.00  0.00    +0.000 C 
ATOM     28  C   UNL     1       4.014  -0.412   0.000  0.00  0.00    +0.000 C 
ATOM     29  C   UNL     1       5.443  -0.412   0.000  0.00  0.00    +0.000 C 
BRANCH  28  32
ATOM     30  O   UNL     1       3.300   0.825   0.000  0.00  0.00    +0.000 OA
ATOM     31  O   UNL     1       2.475   0.000   0.000  0.00  0.00    +0.000 OA
ATOM     32  C   UNL     1       3.300   0.000   0.000  0.00  0.00    +0.000 C 
ENDBRANCH  28  32
BRANCH  26  33
ATOM     33  O   UNL     1       3.300  -1.650   0.000  0.00  0.00    +0.000 OA
BRANCH  33  34
ATOM     34  S   UNL     1       2.475  -1.650   0.000  0.00  0.00    +0.000 S 
ATOM     35  O   UNL     1       2.475  -2.475   0.000  0.00  0.00    +0.000 OA
ATOM     36  O   UNL     1       1.650  -1.650   0.000  0.00  0.00    +0.000 OA
ATOM     37  O   UNL     1       2.475  -0.825   0.000  0.00  0.00    +0.000 OA
ENDBRANCH  33  34
ENDBRANCH  26  33
BRANCH  27  38
ATOM     38  O   UNL     1       6.158  -1.650   0.000  0.00  0.00    +0.000 OA
BRANCH  38  39
ATOM     39  S   UNL     1       6.158  -2.475   0.000  0.00  0.00    +0.000 S 
ATOM     40  O   UNL     1       6.158  -3.300   0.000  0.00  0.00    +0.000 OA
ATOM     41  O   UNL     1       6.983  -2.475   0.000  0.00  0.00    +0.000 OA
ATOM     42  O   UNL     1       5.333  -2.475   0.000  0.00  0.00    +0.000 OA
ENDBRANCH  38  39
ENDBRANCH  27  38
ENDBRANCH   1  29
TORSDOF 9
