REMARK  Name = 44259954
REMARK  9 active torsions:
REMARK  status: ('A' for Active; 'I' for Inactive)
REMARK    1  A    between atoms: O_2  and  C_15
REMARK    2  A    between atoms: O_2  and  C_21
REMARK    3  A    between atoms: O_3  and  C_16
REMARK    4  A    between atoms: O_3  and  C_22
REMARK    5  A    between atoms: O_4  and  C_18
REMARK    6  A    between atoms: O_4  and  C_20
REMARK    7  A    between atoms: O_5  and  C_17
REMARK    8  A    between atoms: O_5  and  C_24
REMARK    9  A    between atoms: C_33  and  C_35
REMARK                            x       y       z     vdW  Elec       q    Type
REMARK                         _______ _______ _______ _____ _____    ______ ____
ROOT
ATOM      1  O   UNL     1       7.360   0.913   0.000  0.00  0.00    +0.000 OA
ATOM      2  O   UNL     1       4.448   0.893   0.000  0.00  0.00    +0.000 OA
ATOM      3  O   UNL     1       5.918   3.417   0.000  0.00  0.00    +0.000 OA
ATOM      4  O   UNL     1       8.789   2.563   0.000  0.00  0.00    +0.000 OA
ATOM      5  O   UNL     1       7.360   3.388   0.000  0.00  0.00    +0.000 OA
ATOM      6  C   UNL     1       5.908   0.884   0.000  0.00  0.00    +0.000 A 
ATOM      7  C   UNL     1       6.646   1.326   0.000  0.00  0.00    +0.000 A 
ATOM      8  C   UNL     1       5.160   1.308   0.000  0.00  0.00    +0.000 A 
ATOM      9  C   UNL     1       6.646   2.151   0.000  0.00  0.00    +0.000 A 
ATOM     10  C   UNL     1       5.160   2.168   0.000  0.00  0.00    +0.000 A 
ATOM     11  C   UNL     1       5.908   2.592   0.000  0.00  0.00    +0.000 A 
ATOM     12  C   UNL     1       7.360   2.563   0.000  0.00  0.00    +0.000 A 
ATOM     13  C   UNL     1       8.074   1.326   0.000  0.00  0.00    +0.000 A 
ATOM     14  C   UNL     1       8.074   2.151   0.000  0.00  0.00    +0.000 A 
ENDROOT
BRANCH  13  16
ATOM     15  O   UNL     1      10.932  -0.324   0.000  0.00  0.00    +0.000 OA
ATOM     16  C   UNL     1       8.789   0.913   0.000  0.00  0.00    +0.000 A 
ATOM     17  C   UNL     1       9.503   1.326   0.000  0.00  0.00    +0.000 A 
ATOM     18  C   UNL     1       8.789   0.088   0.000  0.00  0.00    +0.000 A 
ATOM     19  C   UNL     1      10.218   0.913   0.000  0.00  0.00    +0.000 A 
ATOM     20  C   UNL     1       9.503  -0.324   0.000  0.00  0.00    +0.000 A 
ATOM     21  C   UNL     1      10.218   0.088   0.000  0.00  0.00    +0.000 A 
ENDBRANCH  13  16
BRANCH   6  22
ATOM     22  O   UNL     1       5.918   0.060   0.000  0.00  0.00    +0.000 OA
BRANCH  22  27
ATOM     23  O   UNL     1       4.489   0.043   0.000  0.00  0.00    +0.000 OA
ATOM     24  C   UNL     1       4.508  -1.607   0.000  0.00  0.00    +0.000 C 
ATOM     25  C   UNL     1       5.217  -1.186   0.000  0.00  0.00    +0.000 C 
ATOM     26  C   UNL     1       3.788  -1.203   0.000  0.00  0.00    +0.000 C 
ATOM     27  C   UNL     1       5.208  -0.361   0.000  0.00  0.00    +0.000 C 
ATOM     28  C   UNL     1       3.779  -0.378   0.000  0.00  0.00    +0.000 C 
BRANCH  24  29
ATOM     29  O   UNL     1       4.517  -2.432   0.000  0.00  0.00    +0.000 OA
BRANCH  29  31
ATOM     30  O   UNL     1       3.088  -2.448   0.000  0.00  0.00    +0.000 OA
ATOM     31  C   UNL     1       3.808  -2.853   0.000  0.00  0.00    +0.000 C 
ATOM     32  C   UNL     1       3.817  -3.678   0.000  0.00  0.00    +0.000 C 
ENDBRANCH  29  31
ENDBRANCH  24  29
BRANCH  25  33
ATOM     33  O   UNL     1       5.936  -1.590   0.000  0.00  0.00    +0.000 OA
BRANCH  33  35
ATOM     34  O   UNL     1       5.236  -2.836   0.000  0.00  0.00    +0.000 OA
ATOM     35  C   UNL     1       5.946  -2.415   0.000  0.00  0.00    +0.000 C 
ATOM     36  C   UNL     1       6.665  -2.820   0.000  0.00  0.00    +0.000 C 
ENDBRANCH  33  35
ENDBRANCH  25  33
BRANCH  26  37
ATOM     37  O   UNL     1       3.079  -1.623   0.000  0.00  0.00    +0.000 OA
BRANCH  37  39
ATOM     38  O   UNL     1       2.350  -0.394   0.000  0.00  0.00    +0.000 OA
ATOM     39  C   UNL     1       2.360  -1.219   0.000  0.00  0.00    +0.000 C 
ATOM     40  C   UNL     1       1.650  -1.640   0.000  0.00  0.00    +0.000 C 
ENDBRANCH  37  39
ENDBRANCH  26  37
ENDBRANCH  22  27
ENDBRANCH   6  22
TORSDOF 9
