REMARK  Name = 44257845
REMARK  11 active torsions:
REMARK  status: ('A' for Active; 'I' for Inactive)
REMARK    1  A    between atoms: O_5  and  C_24
REMARK    2  A    between atoms: O_5  and  C_32
REMARK    3  A    between atoms: O_7  and  C_29
REMARK    4  A    between atoms: O_7  and  C_33
REMARK    5  A    between atoms: O_11  and  C_30
REMARK    6  A    between atoms: O_11  and  C_36
REMARK    7  A    between atoms: C_22  and  C_30
REMARK    8  A    between atoms: C_28  and  C_31
REMARK    9  A    between atoms: C_36  and  C_46
REMARK   10  A    between atoms: C_40  and  C_45
REMARK   11  A    between atoms: C_46  and  C_49
REMARK                            x       y       z     vdW  Elec       q    Type
REMARK                         _______ _______ _______ _____ _____    ______ ____
ROOT
ATOM      1  O   UNL     1       9.238   0.187   0.000  0.00  0.00    +0.000 OA
ATOM      2  O   UNL     1       7.791   2.688   0.000  0.00  0.00    +0.000 OA
ATOM      3  O   UNL     1       7.094   1.424   0.000  0.00  0.00    +0.000 OA
ATOM      4  C   UNL     1       9.995   2.289   0.000  0.00  0.00    +0.000 A 
ATOM      5  C   UNL     1       9.988   1.430   0.000  0.00  0.00    +0.000 A 
ATOM      6  C   UNL     1       9.251   2.719   0.000  0.00  0.00    +0.000 A 
ATOM      7  C   UNL     1       9.238   1.012   0.000  0.00  0.00    +0.000 A 
ATOM      8  C   UNL     1       8.523   1.424   0.000  0.00  0.00    +0.000 A 
ATOM      9  C   UNL     1       8.510   2.284   0.000  0.00  0.00    +0.000 A 
ATOM     10  C   UNL     1       8.523  -0.226   0.000  0.00  0.00    +0.000 A 
ATOM     11  C   UNL     1       7.809   1.012   0.000  0.00  0.00    +0.000 A 
ATOM     12  C   UNL     1       7.809   0.187   0.000  0.00  0.00    +0.000 A 
ENDROOT
BRANCH  10  16
ATOM     13  C   UNL     1       8.523  -2.701   0.000  0.00  0.00    +0.000 A 
ATOM     14  C   UNL     1       9.238  -2.288   0.000  0.00  0.00    +0.000 A 
ATOM     15  C   UNL     1       7.809  -2.288   0.000  0.00  0.00    +0.000 A 
ATOM     16  C   UNL     1       8.523  -1.051   0.000  0.00  0.00    +0.000 A 
ATOM     17  C   UNL     1       9.238  -1.463   0.000  0.00  0.00    +0.000 A 
ATOM     18  C   UNL     1       7.809  -1.463   0.000  0.00  0.00    +0.000 A 
BRANCH  13  19
ATOM     19  O   UNL     1       8.523  -3.526   0.000  0.00  0.00    +0.000 OA
BRANCH  19  28
ATOM     20  O   UNL     1       7.094  -3.526   0.000  0.00  0.00    +0.000 OA
ATOM     21  O   UNL     1       5.665  -5.176   0.000  0.00  0.00    +0.000 OA
ATOM     22  O   UNL     1       7.094  -6.001   0.000  0.00  0.00    +0.000 OA
ATOM     23  O   UNL     1       8.523  -5.176   0.000  0.00  0.00    +0.000 OA
ATOM     24  C   UNL     1       6.380  -4.763   0.000  0.00  0.00    +0.000 C 
ATOM     25  C   UNL     1       7.094  -5.176   0.000  0.00  0.00    +0.000 C 
ATOM     26  C   UNL     1       6.380  -3.938   0.000  0.00  0.00    +0.000 C 
ATOM     27  C   UNL     1       7.809  -4.763   0.000  0.00  0.00    +0.000 C 
ATOM     28  C   UNL     1       7.809  -3.938   0.000  0.00  0.00    +0.000 C 
BRANCH  26  29
ATOM     29  C   UNL     1       5.665  -3.526   0.000  0.00  0.00    +0.000 C 
BRANCH  29  30
ATOM     30  O   UNL     1       4.951  -3.938   0.000  0.00  0.00    +0.000 OA
BRANCH  30  32
ATOM     31  O   UNL     1       4.236  -2.701   0.000  0.00  0.00    +0.000 OA
ATOM     32  C   UNL     1       4.236  -3.526   0.000  0.00  0.00    +0.000 C 
BRANCH  32  33
ATOM     33  C   UNL     1       3.522  -3.938   0.000  0.00  0.00    +0.000 C 
BRANCH  33  36
ATOM     34  O   UNL     1       2.093  -3.938   0.000  0.00  0.00    +0.000 OA
ATOM     35  O   UNL     1       2.808  -2.701   0.000  0.00  0.00    +0.000 OA
ATOM     36  C   UNL     1       2.808  -3.526   0.000  0.00  0.00    +0.000 C 
ENDBRANCH  33  36
ENDBRANCH  32  33
ENDBRANCH  30  32
ENDBRANCH  29  30
ENDBRANCH  26  29
ENDBRANCH  19  28
ENDBRANCH  13  19
ENDBRANCH  10  16
BRANCH   4  37
ATOM     37  O   UNL     1      10.711   2.699   0.000  0.00  0.00    +0.000 OA
BRANCH  37  46
ATOM     38  O   UNL     1      11.430   3.934   0.000  0.00  0.00    +0.000 OA
ATOM     39  O   UNL     1       9.292   5.179   0.000  0.00  0.00    +0.000 OA
ATOM     40  O   UNL     1      10.724   5.999   0.000  0.00  0.00    +0.000 OA
ATOM     41  O   UNL     1       9.285   3.530   0.000  0.00  0.00    +0.000 OA
ATOM     42  C   UNL     1      10.005   4.764   0.000  0.00  0.00    +0.000 C 
ATOM     43  C   UNL     1      10.721   5.174   0.000  0.00  0.00    +0.000 C 
ATOM     44  C   UNL     1      10.001   3.939   0.000  0.00  0.00    +0.000 C 
ATOM     45  C   UNL     1      11.434   4.759   0.000  0.00  0.00    +0.000 C 
ATOM     46  C   UNL     1      10.714   3.524   0.000  0.00  0.00    +0.000 C 
BRANCH  45  49
ATOM     47  O   UNL     1      12.863   4.753   0.000  0.00  0.00    +0.000 OA
ATOM     48  O   UNL     1      12.153   5.994   0.000  0.00  0.00    +0.000 OA
ATOM     49  C   UNL     1      12.150   5.168   0.000  0.00  0.00    +0.000 C 
ENDBRANCH  45  49
ENDBRANCH  37  46
ENDBRANCH   4  37
TORSDOF 11
