REMARK  Name = 44257802
REMARK  5 active torsions:
REMARK  status: ('A' for Active; 'I' for Inactive)
REMARK    1  A    between atoms: O_2  and  C_16
REMARK    2  A    between atoms: O_2  and  C_18
REMARK    3  A    between atoms: O_6  and  C_17
REMARK    4  A    between atoms: C_15  and  C_17
REMARK    5  A    between atoms: C_26  and  C_28
REMARK                            x       y       z     vdW  Elec       q    Type
REMARK                         _______ _______ _______ _____ _____    ______ ____
ROOT
ATOM      1  O   UNL     1       7.385   1.141   0.000  0.00  0.00    +0.000 OA
ATOM      2  O   UNL     1       4.496   1.155   0.000  0.00  0.00    +0.000 OA
ATOM      3  O   UNL     1       5.247   2.387   0.000  0.00  0.00    +0.000 OA
ATOM      4  C   UNL     1       5.937  -0.561   0.000  0.00  0.00    +0.000 A 
ATOM      5  C   UNL     1       6.679  -0.128   0.000  0.00  0.00    +0.000 A 
ATOM      6  C   UNL     1       5.194  -0.128   0.000  0.00  0.00    +0.000 A 
ATOM      7  C   UNL     1       6.669   0.731   0.000  0.00  0.00    +0.000 A 
ATOM      8  C   UNL     1       5.957   1.146   0.000  0.00  0.00    +0.000 A 
ATOM      9  C   UNL     1       5.204   0.731   0.000  0.00  0.00    +0.000 A 
ATOM     10  C   UNL     1       5.960   1.971   0.000  0.00  0.00    +0.000 A 
ATOM     11  C   UNL     1       7.389   1.966   0.000  0.00  0.00    +0.000 A 
ATOM     12  C   UNL     1       6.676   2.381   0.000  0.00  0.00    +0.000 A 
ENDROOT
BRANCH  11  14
ATOM     13  O   UNL     1      10.253   3.605   0.000  0.00  0.00    +0.000 OA
ATOM     14  C   UNL     1       8.105   2.376   0.000  0.00  0.00    +0.000 A 
ATOM     15  C   UNL     1       8.108   3.201   0.000  0.00  0.00    +0.000 A 
ATOM     16  C   UNL     1       8.818   1.960   0.000  0.00  0.00    +0.000 A 
ATOM     17  C   UNL     1       8.824   3.610   0.000  0.00  0.00    +0.000 A 
ATOM     18  C   UNL     1       9.534   2.370   0.000  0.00  0.00    +0.000 A 
ATOM     19  C   UNL     1       9.537   3.195   0.000  0.00  0.00    +0.000 A 
ENDBRANCH  11  14
BRANCH   4  20
ATOM     20  O   UNL     1       5.937  -1.386   0.000  0.00  0.00    +0.000 OA
BRANCH  20  29
ATOM     21  O   UNL     1       4.508  -1.386   0.000  0.00  0.00    +0.000 OA
ATOM     22  O   UNL     1       4.508  -3.861   0.000  0.00  0.00    +0.000 OA
ATOM     23  O   UNL     1       3.079  -3.036   0.000  0.00  0.00    +0.000 OA
ATOM     24  O   UNL     1       5.937  -3.036   0.000  0.00  0.00    +0.000 OA
ATOM     25  C   UNL     1       4.508  -3.036   0.000  0.00  0.00    +0.000 C 
ATOM     26  C   UNL     1       3.793  -2.623   0.000  0.00  0.00    +0.000 C 
ATOM     27  C   UNL     1       5.222  -2.623   0.000  0.00  0.00    +0.000 C 
ATOM     28  C   UNL     1       3.793  -1.798   0.000  0.00  0.00    +0.000 C 
ATOM     29  C   UNL     1       5.222  -1.798   0.000  0.00  0.00    +0.000 C 
BRANCH  28  31
ATOM     30  O   UNL     1       3.079  -0.561   0.000  0.00  0.00    +0.000 OA
ATOM     31  C   UNL     1       3.079  -1.386   0.000  0.00  0.00    +0.000 C 
BRANCH  31  32
ATOM     32  O   UNL     1       2.364  -1.798   0.000  0.00  0.00    +0.000 OA
ATOM     33  C   UNL     1       1.650  -1.386   0.000  0.00  0.00    +0.000 C 
ENDBRANCH  31  32
ENDBRANCH  28  31
ENDBRANCH  20  29
ENDBRANCH   4  20
TORSDOF 5
