REMARK  Name = 44257817
REMARK  7 active torsions:
REMARK  status: ('A' for Active; 'I' for Inactive)
REMARK    1  A    between atoms: O_3  and  C_25
REMARK    2  A    between atoms: O_3  and  C_30
REMARK    3  A    between atoms: O_5  and  C_27
REMARK    4  A    between atoms: O_5  and  C_31
REMARK    5  A    between atoms: C_24  and  C_28
REMARK    6  A    between atoms: C_26  and  C_29
REMARK    7  A    between atoms: C_38  and  C_40
REMARK                            x       y       z     vdW  Elec       q    Type
REMARK                         _______ _______ _______ _____ _____    ______ ____
ROOT
ATOM      1  O   UNL     1       7.114  -0.382   0.000  0.00  0.00    +0.000 OA
ATOM      2  O   UNL     1       4.225  -0.368   0.000  0.00  0.00    +0.000 OA
ATOM      3  O   UNL     1       4.975   0.864   0.000  0.00  0.00    +0.000 OA
ATOM      4  C   UNL     1       5.665  -2.084   0.000  0.00  0.00    +0.000 A 
ATOM      5  C   UNL     1       6.408  -1.651   0.000  0.00  0.00    +0.000 A 
ATOM      6  C   UNL     1       4.923  -1.651   0.000  0.00  0.00    +0.000 A 
ATOM      7  C   UNL     1       6.398  -0.792   0.000  0.00  0.00    +0.000 A 
ATOM      8  C   UNL     1       5.685  -0.377   0.000  0.00  0.00    +0.000 A 
ATOM      9  C   UNL     1       4.933  -0.792   0.000  0.00  0.00    +0.000 A 
ATOM     10  C   UNL     1       7.117   0.443   0.000  0.00  0.00    +0.000 A 
ATOM     11  C   UNL     1       5.688   0.449   0.000  0.00  0.00    +0.000 A 
ATOM     12  C   UNL     1       6.404   0.858   0.000  0.00  0.00    +0.000 A 
ENDROOT
BRANCH  10  16
ATOM     13  C   UNL     1       9.265   1.672   0.000  0.00  0.00    +0.000 A 
ATOM     14  C   UNL     1       8.552   2.087   0.000  0.00  0.00    +0.000 A 
ATOM     15  C   UNL     1       9.262   0.847   0.000  0.00  0.00    +0.000 A 
ATOM     16  C   UNL     1       7.833   0.853   0.000  0.00  0.00    +0.000 A 
ATOM     17  C   UNL     1       7.836   1.678   0.000  0.00  0.00    +0.000 A 
ATOM     18  C   UNL     1       8.546   0.437   0.000  0.00  0.00    +0.000 A 
BRANCH  13  19
ATOM     19  O   UNL     1       9.981   2.082   0.000  0.00  0.00    +0.000 OA
BRANCH  19  28
ATOM     20  O   UNL     1      10.701   3.317   0.000  0.00  0.00    +0.000 OA
ATOM     21  O   UNL     1       8.562   4.562   0.000  0.00  0.00    +0.000 OA
ATOM     22  O   UNL     1       9.994   5.382   0.000  0.00  0.00    +0.000 OA
ATOM     23  O   UNL     1       8.556   2.912   0.000  0.00  0.00    +0.000 OA
ATOM     24  C   UNL     1       9.275   4.147   0.000  0.00  0.00    +0.000 C 
ATOM     25  C   UNL     1       9.991   4.557   0.000  0.00  0.00    +0.000 C 
ATOM     26  C   UNL     1       9.272   3.322   0.000  0.00  0.00    +0.000 C 
ATOM     27  C   UNL     1      10.704   4.142   0.000  0.00  0.00    +0.000 C 
ATOM     28  C   UNL     1       9.985   2.907   0.000  0.00  0.00    +0.000 C 
BRANCH  27  31
ATOM     29  O   UNL     1      12.133   4.136   0.000  0.00  0.00    +0.000 OA
ATOM     30  O   UNL     1      11.423   5.376   0.000  0.00  0.00    +0.000 OA
ATOM     31  C   UNL     1      11.420   4.551   0.000  0.00  0.00    +0.000 C 
ENDBRANCH  27  31
ENDBRANCH  19  28
ENDBRANCH  13  19
ENDBRANCH  10  16
BRANCH   4  32
ATOM     32  O   UNL     1       5.665  -2.909   0.000  0.00  0.00    +0.000 OA
BRANCH  32  41
ATOM     33  O   UNL     1       4.236  -2.909   0.000  0.00  0.00    +0.000 OA
ATOM     34  O   UNL     1       4.236  -5.384   0.000  0.00  0.00    +0.000 OA
ATOM     35  O   UNL     1       2.808  -4.559   0.000  0.00  0.00    +0.000 OA
ATOM     36  O   UNL     1       5.665  -4.559   0.000  0.00  0.00    +0.000 OA
ATOM     37  C   UNL     1       4.236  -4.559   0.000  0.00  0.00    +0.000 C 
ATOM     38  C   UNL     1       3.522  -4.146   0.000  0.00  0.00    +0.000 C 
ATOM     39  C   UNL     1       4.951  -4.146   0.000  0.00  0.00    +0.000 C 
ATOM     40  C   UNL     1       3.522  -3.321   0.000  0.00  0.00    +0.000 C 
ATOM     41  C   UNL     1       4.951  -3.321   0.000  0.00  0.00    +0.000 C 
BRANCH  40  44
ATOM     42  O   UNL     1       2.093  -3.321   0.000  0.00  0.00    +0.000 OA
ATOM     43  O   UNL     1       2.808  -2.084   0.000  0.00  0.00    +0.000 OA
ATOM     44  C   UNL     1       2.808  -2.909   0.000  0.00  0.00    +0.000 C 
ENDBRANCH  40  44
ENDBRANCH  32  41
ENDBRANCH   4  32
TORSDOF 7
