REMARK  Name = 44259472
REMARK  9 active torsions:
REMARK  status: ('A' for Active; 'I' for Inactive)
REMARK    1  A    between atoms: O_2  and  C_16
REMARK    2  A    between atoms: O_2  and  C_22
REMARK    3  A    between atoms: O_3  and  C_17
REMARK    4  A    between atoms: O_3  and  C_23
REMARK    5  A    between atoms: O_4  and  C_18
REMARK    6  A    between atoms: O_4  and  C_24
REMARK    7  A    between atoms: O_5  and  C_19
REMARK    8  A    between atoms: O_5  and  C_21
REMARK    9  A    between atoms: C_25  and  C_29
REMARK                            x       y       z     vdW  Elec       q    Type
REMARK                         _______ _______ _______ _____ _____    ______ ____
ROOT
ATOM      1  O   UNL     1       5.006  -1.935   0.000  0.00  0.00    +0.000 OA
ATOM      2  O   UNL     1       5.006   0.540   0.000  0.00  0.00    +0.000 OA
ATOM      3  O   UNL     1       3.564   0.569   0.000  0.00  0.00    +0.000 OA
ATOM      4  O   UNL     1       2.094  -1.955   0.000  0.00  0.00    +0.000 OA
ATOM      5  C   UNL     1       5.721  -0.697   0.000  0.00  0.00    +0.000 A 
ATOM      6  C   UNL     1       5.721  -1.522   0.000  0.00  0.00    +0.000 A 
ATOM      7  C   UNL     1       5.006  -0.285   0.000  0.00  0.00    +0.000 A 
ATOM      8  C   UNL     1       4.292  -0.697   0.000  0.00  0.00    +0.000 A 
ATOM      9  C   UNL     1       4.292  -1.522   0.000  0.00  0.00    +0.000 A 
ATOM     10  C   UNL     1       3.554  -0.256   0.000  0.00  0.00    +0.000 A 
ATOM     11  C   UNL     1       3.554  -1.963   0.000  0.00  0.00    +0.000 A 
ATOM     12  C   UNL     1       2.807  -0.680   0.000  0.00  0.00    +0.000 A 
ATOM     13  C   UNL     1       2.807  -1.539   0.000  0.00  0.00    +0.000 A 
ENDROOT
BRANCH   6  17
ATOM     14  O   UNL     1       8.579  -1.522   0.000  0.00  0.00    +0.000 OA
ATOM     15  O   UNL     1       7.150  -3.997   0.000  0.00  0.00    +0.000 OA
ATOM     16  O   UNL     1       8.579  -3.172   0.000  0.00  0.00    +0.000 OA
ATOM     17  C   UNL     1       6.435  -1.935   0.000  0.00  0.00    +0.000 A 
ATOM     18  C   UNL     1       6.435  -2.760   0.000  0.00  0.00    +0.000 A 
ATOM     19  C   UNL     1       7.150  -1.522   0.000  0.00  0.00    +0.000 A 
ATOM     20  C   UNL     1       7.864  -1.935   0.000  0.00  0.00    +0.000 A 
ATOM     21  C   UNL     1       7.150  -3.172   0.000  0.00  0.00    +0.000 A 
ATOM     22  C   UNL     1       7.864  -2.760   0.000  0.00  0.00    +0.000 A 
ENDBRANCH   6  17
BRANCH   5  23
ATOM     23  O   UNL     1       6.435  -0.285   0.000  0.00  0.00    +0.000 OA
BRANCH  23  28
ATOM     24  O   UNL     1       5.721   0.953   0.000  0.00  0.00    +0.000 OA
ATOM     25  C   UNL     1       7.150   1.778   0.000  0.00  0.00    +0.000 C 
ATOM     26  C   UNL     1       7.150   0.953   0.000  0.00  0.00    +0.000 C 
ATOM     27  C   UNL     1       6.435   2.190   0.000  0.00  0.00    +0.000 C 
ATOM     28  C   UNL     1       6.435   0.540   0.000  0.00  0.00    +0.000 C 
ATOM     29  C   UNL     1       5.721   1.778   0.000  0.00  0.00    +0.000 C 
BRANCH  25  30
ATOM     30  O   UNL     1       7.864   2.190   0.000  0.00  0.00    +0.000 OA
BRANCH  30  32
ATOM     31  O   UNL     1       7.150   3.428   0.000  0.00  0.00    +0.000 OA
ATOM     32  C   UNL     1       7.864   3.015   0.000  0.00  0.00    +0.000 C 
ATOM     33  C   UNL     1       8.579   3.428   0.000  0.00  0.00    +0.000 C 
ENDBRANCH  30  32
ENDBRANCH  25  30
BRANCH  26  34
ATOM     34  O   UNL     1       7.864   0.540   0.000  0.00  0.00    +0.000 OA
BRANCH  34  36
ATOM     35  O   UNL     1       8.579   1.778   0.000  0.00  0.00    +0.000 OA
ATOM     36  C   UNL     1       8.579   0.953   0.000  0.00  0.00    +0.000 C 
ATOM     37  C   UNL     1       9.293   0.540   0.000  0.00  0.00    +0.000 C 
ENDBRANCH  34  36
ENDBRANCH  26  34
BRANCH  27  38
ATOM     38  O   UNL     1       6.435   3.015   0.000  0.00  0.00    +0.000 OA
BRANCH  38  40
ATOM     39  O   UNL     1       5.006   3.015   0.000  0.00  0.00    +0.000 OA
ATOM     40  C   UNL     1       5.721   3.428   0.000  0.00  0.00    +0.000 C 
ATOM     41  C   UNL     1       5.721   4.253   0.000  0.00  0.00    +0.000 C 
ENDBRANCH  38  40
ENDBRANCH  27  38
ENDBRANCH  23  28
ENDBRANCH   5  23
TORSDOF 9
