REMARK  Name = 42607585
REMARK  8 active torsions:
REMARK  status: ('A' for Active; 'I' for Inactive)
REMARK    1  A    between atoms: O_1  and  C_13
REMARK    2  A    between atoms: O_1  and  C_18
REMARK    3  A    between atoms: O_6  and  C_17
REMARK    4  A    between atoms: O_6  and  C_24
REMARK    5  A    between atoms: C_15  and  C_22
REMARK    6  A    between atoms: C_29  and  C_30
REMARK    7  A    between atoms: C_31  and  C_32
REMARK    8  A    between atoms: C_32  and  C_33
REMARK                            x       y       z     vdW  Elec       q    Type
REMARK                         _______ _______ _______ _____ _____    ______ ____
ROOT
ATOM      1  O   UNL     1       6.380  -1.728   0.000  0.00  0.00    +0.000 OA
ATOM      2  O   UNL     1       6.380  -4.203   0.000  0.00  0.00    +0.000 OA
ATOM      3  O   UNL     1       7.809  -3.378   0.000  0.00  0.00    +0.000 OA
ATOM      4  C   UNL     1       5.665  -2.966   0.000  0.00  0.00    +0.000 C 
ATOM      5  C   UNL     1       6.380  -3.378   0.000  0.00  0.00    +0.000 C 
ATOM      6  C   UNL     1       5.665  -2.141   0.000  0.00  0.00    +0.000 C 
ATOM      7  C   UNL     1       7.094  -2.966   0.000  0.00  0.00    +0.000 C 
ATOM      8  C   UNL     1       7.094  -2.141   0.000  0.00  0.00    +0.000 C 
ENDROOT
BRANCH   6  10
ATOM      9  O   UNL     1       4.951  -0.903   0.000  0.00  0.00    +0.000 OA
ATOM     10  C   UNL     1       4.951  -1.728   0.000  0.00  0.00    +0.000 C 
ENDBRANCH   6  10
BRANCH   4  11
ATOM     11  O   UNL     1       4.951  -3.378   0.000  0.00  0.00    +0.000 OA
BRANCH  11  16
ATOM     12  O   UNL     1       4.236  -2.141   0.000  0.00  0.00    +0.000 OA
ATOM     13  O   UNL     1       3.522  -4.203   0.000  0.00  0.00    +0.000 OA
ATOM     14  O   UNL     1       2.093  -3.378   0.000  0.00  0.00    +0.000 OA
ATOM     15  O   UNL     1       2.093  -1.728   0.000  0.00  0.00    +0.000 OA
ATOM     16  C   UNL     1       4.236  -2.966   0.000  0.00  0.00    +0.000 C 
ATOM     17  C   UNL     1       3.522  -3.378   0.000  0.00  0.00    +0.000 C 
ATOM     18  C   UNL     1       2.808  -2.966   0.000  0.00  0.00    +0.000 C 
ATOM     19  C   UNL     1       2.808  -2.141   0.000  0.00  0.00    +0.000 C 
ATOM     20  C   UNL     1       3.522  -1.728   0.000  0.00  0.00    +0.000 C 
ENDBRANCH  11  16
ENDBRANCH   4  11
BRANCH   8  21
ATOM     21  O   UNL     1       7.809  -1.728   0.000  0.00  0.00    +0.000 OA
BRANCH  21  23
ATOM     22  O   UNL     1       9.238  -0.903   0.000  0.00  0.00    +0.000 OA
ATOM     23  C   UNL     1       7.809  -0.903   0.000  0.00  0.00    +0.000 A 
ATOM     24  C   UNL     1       8.523  -0.491   0.000  0.00  0.00    +0.000 A 
ATOM     25  C   UNL     1       7.094  -0.491   0.000  0.00  0.00    +0.000 A 
ATOM     26  C   UNL     1       8.523   0.334   0.000  0.00  0.00    +0.000 A 
ATOM     27  C   UNL     1       7.094   0.334   0.000  0.00  0.00    +0.000 A 
ATOM     28  C   UNL     1       7.809   0.747   0.000  0.00  0.00    +0.000 A 
BRANCH  28  29
ATOM     29  C   UNL     1       7.809   1.572   0.000  0.00  0.00    +0.000 C 
ATOM     30  C   UNL     1       8.523   1.984   0.000  0.00  0.00    +0.000 C 
BRANCH  30  32
ATOM     31  O   UNL     1       7.809   3.222   0.000  0.00  0.00    +0.000 OA
ATOM     32  C   UNL     1       8.523   2.809   0.000  0.00  0.00    +0.000 C 
BRANCH  32  33
ATOM     33  C   UNL     1       9.238   3.222   0.000  0.00  0.00    +0.000 A 
ATOM     34  C   UNL     1       9.238   4.047   0.000  0.00  0.00    +0.000 A 
ATOM     35  C   UNL     1       9.952   2.809   0.000  0.00  0.00    +0.000 A 
ATOM     36  C   UNL     1       9.952   4.459   0.000  0.00  0.00    +0.000 A 
ATOM     37  C   UNL     1      10.667   3.222   0.000  0.00  0.00    +0.000 A 
ATOM     38  C   UNL     1      10.667   4.047   0.000  0.00  0.00    +0.000 A 
ENDBRANCH  32  33
ENDBRANCH  30  32
ENDBRANCH  28  29
ENDBRANCH  21  23
ENDBRANCH   8  21
TORSDOF 8
