REMARK  Name = 44258595
REMARK  7 active torsions:
REMARK  status: ('A' for Active; 'I' for Inactive)
REMARK    1  A    between atoms: O_3  and  C_26
REMARK    2  A    between atoms: O_3  and  C_32
REMARK    3  A    between atoms: O_5  and  C_29
REMARK    4  A    between atoms: O_5  and  C_33
REMARK    5  A    between atoms: C_27  and  C_30
REMARK    6  A    between atoms: C_28  and  C_31
REMARK    7  A    between atoms: C_39  and  C_40
REMARK                            x       y       z     vdW  Elec       q    Type
REMARK                         _______ _______ _______ _____ _____    ______ ____
ROOT
ATOM      1  O   UNL     1       7.117   0.384   0.000  0.00  0.00    +0.000 OA
ATOM      2  O   UNL     1       4.236   0.412   0.000  0.00  0.00    +0.000 OA
ATOM      3  O   UNL     1       5.665   2.888   0.000  0.00  0.00    +0.000 OA
ATOM      4  O   UNL     1       7.108   2.916   0.000  0.00  0.00    +0.000 OA
ATOM      5  C   UNL     1       5.665   0.412   0.000  0.00  0.00    +0.000 A 
ATOM      6  C   UNL     1       6.380   0.825   0.000  0.00  0.00    +0.000 A 
ATOM      7  C   UNL     1       4.951   0.825   0.000  0.00  0.00    +0.000 A 
ATOM      8  C   UNL     1       6.380   1.650   0.000  0.00  0.00    +0.000 A 
ATOM      9  C   UNL     1       7.865   0.808   0.000  0.00  0.00    +0.000 A 
ATOM     10  C   UNL     1       5.665   2.062   0.000  0.00  0.00    +0.000 A 
ATOM     11  C   UNL     1       4.951   1.650   0.000  0.00  0.00    +0.000 A 
ATOM     12  C   UNL     1       7.117   2.091   0.000  0.00  0.00    +0.000 A 
ATOM     13  C   UNL     1       7.865   1.667   0.000  0.00  0.00    +0.000 A 
ENDROOT
BRANCH   9  18
ATOM     14  O   UNL     1       9.284  -1.673   0.000  0.00  0.00    +0.000 OA
ATOM     15  C   UNL     1      10.004  -0.438   0.000  0.00  0.00    +0.000 A 
ATOM     16  C   UNL     1       9.287  -0.848   0.000  0.00  0.00    +0.000 A 
ATOM     17  C   UNL     1      10.007   0.387   0.000  0.00  0.00    +0.000 A 
ATOM     18  C   UNL     1       8.578   0.393   0.000  0.00  0.00    +0.000 A 
ATOM     19  C   UNL     1       8.575  -0.432   0.000  0.00  0.00    +0.000 A 
ATOM     20  C   UNL     1       9.294   0.802   0.000  0.00  0.00    +0.000 A 
BRANCH  15  21
ATOM     21  O   UNL     1      10.716  -0.853   0.000  0.00  0.00    +0.000 OA
BRANCH  21  30
ATOM     22  O   UNL     1      12.145  -0.859   0.000  0.00  0.00    +0.000 OA
ATOM     23  O   UNL     1      12.155   1.616   0.000  0.00  0.00    +0.000 OA
ATOM     24  O   UNL     1      13.581   0.786   0.000  0.00  0.00    +0.000 OA
ATOM     25  O   UNL     1      10.723   0.797   0.000  0.00  0.00    +0.000 OA
ATOM     26  C   UNL     1      12.152   0.791   0.000  0.00  0.00    +0.000 C 
ATOM     27  C   UNL     1      12.864   0.376   0.000  0.00  0.00    +0.000 C 
ATOM     28  C   UNL     1      11.436   0.382   0.000  0.00  0.00    +0.000 C 
ATOM     29  C   UNL     1      12.861  -0.449   0.000  0.00  0.00    +0.000 C 
ATOM     30  C   UNL     1      11.432  -0.443   0.000  0.00  0.00    +0.000 C 
BRANCH  29  33
ATOM     31  O   UNL     1      13.571  -1.689   0.000  0.00  0.00    +0.000 OA
ATOM     32  O   UNL     1      14.290  -0.454   0.000  0.00  0.00    +0.000 OA
ATOM     33  C   UNL     1      13.574  -0.864   0.000  0.00  0.00    +0.000 C 
ENDBRANCH  29  33
ENDBRANCH  21  30
ENDBRANCH  15  21
ENDBRANCH   9  18
BRANCH   5  34
ATOM     34  O   UNL     1       5.665  -0.412   0.000  0.00  0.00    +0.000 OA
BRANCH  34  42
ATOM     35  O   UNL     1       4.236  -0.412   0.000  0.00  0.00    +0.000 OA
ATOM     36  O   UNL     1       4.236  -2.888   0.000  0.00  0.00    +0.000 OA
ATOM     37  O   UNL     1       5.665  -2.062   0.000  0.00  0.00    +0.000 OA
ATOM     38  O   UNL     1       2.808  -2.062   0.000  0.00  0.00    +0.000 OA
ATOM     39  C   UNL     1       4.236  -2.062   0.000  0.00  0.00    +0.000 C 
ATOM     40  C   UNL     1       4.951  -1.650   0.000  0.00  0.00    +0.000 C 
ATOM     41  C   UNL     1       3.522  -1.650   0.000  0.00  0.00    +0.000 C 
ATOM     42  C   UNL     1       4.951  -0.825   0.000  0.00  0.00    +0.000 C 
ATOM     43  C   UNL     1       3.522  -0.825   0.000  0.00  0.00    +0.000 C 
BRANCH  43  46
ATOM     44  O   UNL     1       2.093  -0.825   0.000  0.00  0.00    +0.000 OA
ATOM     45  O   UNL     1       2.808   0.412   0.000  0.00  0.00    +0.000 OA
ATOM     46  C   UNL     1       2.808  -0.412   0.000  0.00  0.00    +0.000 C 
ENDBRANCH  43  46
ENDBRANCH  34  42
ENDBRANCH   5  34
TORSDOF 7
