REMARK  Name = 44259872
REMARK  2 active torsions:
REMARK  status: ('A' for Active; 'I' for Inactive)
REMARK    1  A    between atoms: O_4  and  C_17
REMARK    2  A    between atoms: C_14  and  C_18
REMARK                            x       y       z     vdW  Elec       q    Type
REMARK                         _______ _______ _______ _____ _____    ______ ____
ROOT
ATOM      1  O   UNL     1       5.697  -0.505   0.000  0.00  0.00    +0.000 OA
ATOM      2  O   UNL     1       8.644   1.012   0.000  0.00  0.00    +0.000 OA
ATOM      3  O   UNL     1       8.644  -0.316   0.000  0.00  0.00    +0.000 OA
ATOM      4  O   UNL     1       7.149   1.998   0.000  0.00  0.00    +0.000 OA
ATOM      5  O   UNL     1       5.707   2.027   0.000  0.00  0.00    +0.000 OA
ATOM      6  C   UNL     1       6.435   0.761   0.000  0.00  0.00    +0.000 A 
ATOM      7  C   UNL     1       6.435  -0.064   0.000  0.00  0.00    +0.000 A 
ATOM      8  C   UNL     1       7.864   0.761   0.000  0.00  0.00    +0.000 A 
ATOM      9  C   UNL     1       7.149   1.173   0.000  0.00  0.00    +0.000 A 
ATOM     10  C   UNL     1       7.864  -0.064   0.000  0.00  0.00    +0.000 A 
ATOM     11  C   UNL     1       4.950  -0.081   0.000  0.00  0.00    +0.000 A 
ATOM     12  C   UNL     1       7.149  -0.477   0.000  0.00  0.00    +0.000 A 
ATOM     13  C   UNL     1       5.697   1.202   0.000  0.00  0.00    +0.000 A 
ATOM     14  C   UNL     1       4.950   0.778   0.000  0.00  0.00    +0.000 A 
ATOM     15  C   UNL     1       9.126   0.348   0.000  0.00  0.00    +0.000 C 
ENDROOT
BRANCH  11  18
ATOM     16  O   UNL     1       2.092  -0.092   0.000  0.00  0.00    +0.000 OA
ATOM     17  O   UNL     1       2.098  -1.742   0.000  0.00  0.00    +0.000 OA
ATOM     18  C   UNL     1       4.237  -0.497   0.000  0.00  0.00    +0.000 A 
ATOM     19  C   UNL     1       3.521  -0.087   0.000  0.00  0.00    +0.000 A 
ATOM     20  C   UNL     1       4.240  -1.322   0.000  0.00  0.00    +0.000 A 
ATOM     21  C   UNL     1       2.808  -0.502   0.000  0.00  0.00    +0.000 A 
ATOM     22  C   UNL     1       3.527  -1.737   0.000  0.00  0.00    +0.000 A 
ATOM     23  C   UNL     1       2.811  -1.327   0.000  0.00  0.00    +0.000 A 
ENDBRANCH  11  18
BRANCH  14  24
ATOM     24  O   UNL     1       4.237   1.193   0.000  0.00  0.00    +0.000 OA
ATOM     25  C   UNL     1       4.240   2.018   0.000  0.00  0.00    +0.000 C 
ENDBRANCH  14  24
TORSDOF 2
