REMARK  Name = 44259320
REMARK  6 active torsions:
REMARK  status: ('A' for Active; 'I' for Inactive)
REMARK    1  A    between atoms: S_1  and  O_12
REMARK    2  A    between atoms: O_3  and  C_21
REMARK    3  A    between atoms: O_3  and  C_24
REMARK    4  A    between atoms: O_12  and  C_33
REMARK    5  A    between atoms: C_22  and  C_23
REMARK    6  A    between atoms: C_25  and  C_29
REMARK                            x       y       z     vdW  Elec       q    Type
REMARK                         _______ _______ _______ _____ _____    ______ ____
ROOT
ATOM      1  O   UNL     1       6.380   0.460   0.000  0.00  0.00    +0.000 OA
ATOM      2  O   UNL     1       4.236  -0.778   0.000  0.00  0.00    +0.000 OA
ATOM      3  O   UNL     1       3.490   0.457   0.000  0.00  0.00    +0.000 OA
ATOM      4  C   UNL     1       5.665  -0.778   0.000  0.00  0.00    +0.000 A 
ATOM      5  C   UNL     1       6.380  -0.365   0.000  0.00  0.00    +0.000 A 
ATOM      6  C   UNL     1       4.951  -0.365   0.000  0.00  0.00    +0.000 A 
ATOM      7  C   UNL     1       4.951   0.460   0.000  0.00  0.00    +0.000 A 
ATOM      8  C   UNL     1       5.665   0.872   0.000  0.00  0.00    +0.000 A 
ATOM      9  C   UNL     1       4.200   0.878   0.000  0.00  0.00    +0.000 A 
ATOM     10  C   UNL     1       5.679   1.731   0.000  0.00  0.00    +0.000 A 
ATOM     11  C   UNL     1       4.938   2.167   0.000  0.00  0.00    +0.000 A 
ATOM     12  C   UNL     1       4.194   1.737   0.000  0.00  0.00    +0.000 A 
ENDROOT
BRANCH   5  15
ATOM     13  O   UNL     1       9.238  -0.365   0.000  0.00  0.00    +0.000 OA
ATOM     14  O   UNL     1       9.238  -2.015   0.000  0.00  0.00    +0.000 OA
ATOM     15  C   UNL     1       7.094  -0.778   0.000  0.00  0.00    +0.000 A 
ATOM     16  C   UNL     1       7.809  -0.365   0.000  0.00  0.00    +0.000 A 
ATOM     17  C   UNL     1       7.094  -1.603   0.000  0.00  0.00    +0.000 A 
ATOM     18  C   UNL     1       8.523  -0.778   0.000  0.00  0.00    +0.000 A 
ATOM     19  C   UNL     1       7.809  -2.015   0.000  0.00  0.00    +0.000 A 
ATOM     20  C   UNL     1       8.523  -1.603   0.000  0.00  0.00    +0.000 A 
ENDBRANCH   5  15
BRANCH   4  21
ATOM     21  O   UNL     1       5.665  -1.603   0.000  0.00  0.00    +0.000 OA
BRANCH  21  29
ATOM     22  O   UNL     1       4.236  -1.603   0.000  0.00  0.00    +0.000 OA
ATOM     23  O   UNL     1       4.236  -4.078   0.000  0.00  0.00    +0.000 OA
ATOM     24  O   UNL     1       5.665  -3.253   0.000  0.00  0.00    +0.000 OA
ATOM     25  O   UNL     1       2.808  -3.253   0.000  0.00  0.00    +0.000 OA
ATOM     26  C   UNL     1       4.236  -3.253   0.000  0.00  0.00    +0.000 C 
ATOM     27  C   UNL     1       4.951  -2.841   0.000  0.00  0.00    +0.000 C 
ATOM     28  C   UNL     1       3.522  -2.841   0.000  0.00  0.00    +0.000 C 
ATOM     29  C   UNL     1       4.951  -2.015   0.000  0.00  0.00    +0.000 C 
ATOM     30  C   UNL     1       3.522  -2.015   0.000  0.00  0.00    +0.000 C 
BRANCH  30  33
ATOM     31  O   UNL     1       2.093  -2.015   0.000  0.00  0.00    +0.000 OA
ATOM     32  O   UNL     1       2.808  -0.778   0.000  0.00  0.00    +0.000 OA
ATOM     33  C   UNL     1       2.808  -1.603   0.000  0.00  0.00    +0.000 C 
ENDBRANCH  30  33
ENDBRANCH  21  29
ENDBRANCH   4  21
BRANCH  11  34
ATOM     34  O   UNL     1       4.941   2.992   0.000  0.00  0.00    +0.000 OA
BRANCH  34  35
ATOM     35  S   UNL     1       4.228   3.407   0.000  0.00  0.00    +0.000 S 
ATOM     36  O   UNL     1       3.515   3.822   0.000  0.00  0.00    +0.000 OA
ATOM     37  O   UNL     1       4.643   4.120   0.000  0.00  0.00    +0.000 OA
ATOM     38  O   UNL     1       3.813   2.694   0.000  0.00  0.00    +0.000 OA
ENDBRANCH  34  35
ENDBRANCH  11  34
TORSDOF 6
