REMARK  Name = 44258211
REMARK  4 active torsions:
REMARK  status: ('A' for Active; 'I' for Inactive)
REMARK    1  A    between atoms: S_1  and  O_3
REMARK    2  A    between atoms: O_3  and  C_19
REMARK    3  A    between atoms: O_6  and  C_23
REMARK    4  A    between atoms: C_13  and  C_14
REMARK                            x       y       z     vdW  Elec       q    Type
REMARK                         _______ _______ _______ _____ _____    ______ ____
ROOT
ATOM      1  O   UNL     1       6.436  -0.145   0.000  0.00  0.00    +0.000 OA
ATOM      2  O   UNL     1       4.994   2.359   0.000  0.00  0.00    +0.000 OA
ATOM      3  O   UNL     1       6.436   2.330   0.000  0.00  0.00    +0.000 OA
ATOM      4  C   UNL     1       5.722   1.093   0.000  0.00  0.00    +0.000 A 
ATOM      5  C   UNL     1       5.722   0.268   0.000  0.00  0.00    +0.000 A 
ATOM      6  C   UNL     1       7.151   0.268   0.000  0.00  0.00    +0.000 A 
ATOM      7  C   UNL     1       6.436   1.505   0.000  0.00  0.00    +0.000 A 
ATOM      8  C   UNL     1       4.984   1.534   0.000  0.00  0.00    +0.000 A 
ATOM      9  C   UNL     1       7.151   1.093   0.000  0.00  0.00    +0.000 A 
ATOM     10  C   UNL     1       4.984  -0.173   0.000  0.00  0.00    +0.000 A 
ATOM     11  C   UNL     1       4.237   0.251   0.000  0.00  0.00    +0.000 A 
ATOM     12  C   UNL     1       4.237   1.110   0.000  0.00  0.00    +0.000 A 
ENDROOT
BRANCH   6  14
ATOM     13  O   UNL     1      10.009  -1.382   0.000  0.00  0.00    +0.000 OA
ATOM     14  C   UNL     1       7.865  -0.145   0.000  0.00  0.00    +0.000 A 
ATOM     15  C   UNL     1       7.865  -0.970   0.000  0.00  0.00    +0.000 A 
ATOM     16  C   UNL     1       8.580   0.268   0.000  0.00  0.00    +0.000 A 
ATOM     17  C   UNL     1       8.580  -1.382   0.000  0.00  0.00    +0.000 A 
ATOM     18  C   UNL     1       9.294  -0.145   0.000  0.00  0.00    +0.000 A 
ATOM     19  C   UNL     1       9.294  -0.970   0.000  0.00  0.00    +0.000 A 
BRANCH  17  20
ATOM     20  O   UNL     1       8.580  -2.207   0.000  0.00  0.00    +0.000 OA
ATOM     21  C   UNL     1       9.294  -2.620   0.000  0.00  0.00    +0.000 C 
ENDBRANCH  17  20
ENDBRANCH   6  14
BRANCH  11  22
ATOM     22  O   UNL     1       3.524  -0.165   0.000  0.00  0.00    +0.000 OA
BRANCH  22  23
ATOM     23  S   UNL     1       2.808   0.245   0.000  0.00  0.00    +0.000 S 
ATOM     24  O   UNL     1       2.092   0.655   0.000  0.00  0.00    +0.000 OA
ATOM     25  O   UNL     1       2.398  -0.471   0.000  0.00  0.00    +0.000 OA
ATOM     26  O   UNL     1       3.218   0.961   0.000  0.00  0.00    +0.000 OA
ENDBRANCH  22  23
ENDBRANCH  11  22
TORSDOF 4
