REMARK  Name = 44258689
REMARK  9 active torsions:
REMARK  status: ('A' for Active; 'I' for Inactive)
REMARK    1  A    between atoms: O_1  and  C_17
REMARK    2  A    between atoms: O_1  and  C_20
REMARK    3  A    between atoms: O_9  and  C_26
REMARK    4  A    between atoms: O_9  and  C_28
REMARK    5  A    between atoms: O_13  and  C_39
REMARK    6  A    between atoms: O_14  and  C_40
REMARK    7  A    between atoms: O_15  and  C_41
REMARK    8  A    between atoms: C_22  and  C_27
REMARK    9  A    between atoms: C_29  and  C_32
REMARK                            x       y       z     vdW  Elec       q    Type
REMARK                         _______ _______ _______ _____ _____    ______ ____
ROOT
ATOM      1  O   UNL     1       7.094   2.603   0.000  0.00  0.00    +0.000 OA
ATOM      2  O   UNL     1       7.094   0.128   0.000  0.00  0.00    +0.000 OA
ATOM      3  C   UNL     1       6.380   1.365   0.000  0.00  0.00    +0.000 A 
ATOM      4  C   UNL     1       6.380   2.190   0.000  0.00  0.00    +0.000 A 
ATOM      5  C   UNL     1       7.094   0.953   0.000  0.00  0.00    +0.000 A 
ATOM      6  C   UNL     1       7.809   1.365   0.000  0.00  0.00    +0.000 A 
ATOM      7  C   UNL     1       7.809   2.190   0.000  0.00  0.00    +0.000 A 
ATOM      8  C   UNL     1       8.546   0.924   0.000  0.00  0.00    +0.000 A 
ATOM      9  C   UNL     1       8.546   2.631   0.000  0.00  0.00    +0.000 A 
ATOM     10  C   UNL     1       9.294   1.348   0.000  0.00  0.00    +0.000 A 
ATOM     11  C   UNL     1       9.294   2.208   0.000  0.00  0.00    +0.000 A 
ENDROOT
BRANCH   4  13
ATOM     12  O   UNL     1       3.522   3.840   0.000  0.00  0.00    +0.000 OA
ATOM     13  C   UNL     1       5.665   2.603   0.000  0.00  0.00    +0.000 A 
ATOM     14  C   UNL     1       4.951   2.190   0.000  0.00  0.00    +0.000 A 
ATOM     15  C   UNL     1       5.665   3.428   0.000  0.00  0.00    +0.000 A 
ATOM     16  C   UNL     1       4.951   3.840   0.000  0.00  0.00    +0.000 A 
ATOM     17  C   UNL     1       4.236   2.603   0.000  0.00  0.00    +0.000 A 
ATOM     18  C   UNL     1       4.236   3.428   0.000  0.00  0.00    +0.000 A 
BRANCH  16  19
ATOM     19  O   UNL     1       4.951   4.665   0.000  0.00  0.00    +0.000 OA
ATOM     20  C   UNL     1       5.665   5.078   0.000  0.00  0.00    +0.000 C 
ENDBRANCH  16  19
BRANCH  17  21
ATOM     21  O   UNL     1       3.522   2.190   0.000  0.00  0.00    +0.000 OA
ATOM     22  C   UNL     1       2.808   2.603   0.000  0.00  0.00    +0.000 C 
ENDBRANCH  17  21
ENDBRANCH   4  13
BRANCH  11  23
ATOM     23  O   UNL     1      10.007   2.623   0.000  0.00  0.00    +0.000 OA
ATOM     24  C   UNL     1      10.723   2.213   0.000  0.00  0.00    +0.000 C 
ENDBRANCH  11  23
BRANCH   3  25
ATOM     25  O   UNL     1       5.665   0.953   0.000  0.00  0.00    +0.000 OA
BRANCH  25  33
ATOM     26  O   UNL     1       6.380  -0.285   0.000  0.00  0.00    +0.000 OA
ATOM     27  O   UNL     1       4.236  -1.522   0.000  0.00  0.00    +0.000 OA
ATOM     28  O   UNL     1       4.236   0.128   0.000  0.00  0.00    +0.000 OA
ATOM     29  C   UNL     1       5.665  -1.522   0.000  0.00  0.00    +0.000 C 
ATOM     30  C   UNL     1       4.951  -1.110   0.000  0.00  0.00    +0.000 C 
ATOM     31  C   UNL     1       4.951  -0.285   0.000  0.00  0.00    +0.000 C 
ATOM     32  C   UNL     1       6.380  -1.110   0.000  0.00  0.00    +0.000 C 
ATOM     33  C   UNL     1       5.665   0.128   0.000  0.00  0.00    +0.000 C 
BRANCH  29  34
ATOM     34  O   UNL     1       5.665  -2.347   0.000  0.00  0.00    +0.000 OA
BRANCH  34  39
ATOM     35  O   UNL     1       4.236  -2.347   0.000  0.00  0.00    +0.000 OA
ATOM     36  O   UNL     1       5.665  -3.997   0.000  0.00  0.00    +0.000 OA
ATOM     37  O   UNL     1       4.236  -4.822   0.000  0.00  0.00    +0.000 OA
ATOM     38  O   UNL     1       2.808  -3.997   0.000  0.00  0.00    +0.000 OA
ATOM     39  C   UNL     1       4.951  -2.760   0.000  0.00  0.00    +0.000 C 
ATOM     40  C   UNL     1       4.951  -3.585   0.000  0.00  0.00    +0.000 C 
ATOM     41  C   UNL     1       4.236  -3.997   0.000  0.00  0.00    +0.000 C 
ATOM     42  C   UNL     1       3.522  -3.585   0.000  0.00  0.00    +0.000 C 
ATOM     43  C   UNL     1       3.522  -2.760   0.000  0.00  0.00    +0.000 C 
BRANCH  43  45
ATOM     44  O   UNL     1       2.093  -2.760   0.000  0.00  0.00    +0.000 OA
ATOM     45  C   UNL     1       2.808  -2.347   0.000  0.00  0.00    +0.000 C 
ENDBRANCH  43  45
ENDBRANCH  34  39
ENDBRANCH  29  34
ENDBRANCH  25  33
ENDBRANCH   3  25
TORSDOF 9
