REMARK  Name = 44258145
REMARK  6 active torsions:
REMARK  status: ('A' for Active; 'I' for Inactive)
REMARK    1  A    between atoms: S_1  and  O_10
REMARK    2  A    between atoms: O_3  and  C_20
REMARK    3  A    between atoms: O_3  and  C_22
REMARK    4  A    between atoms: O_10  and  C_35
REMARK    5  A    between atoms: C_19  and  C_21
REMARK    6  A    between atoms: C_25  and  C_28
REMARK                            x       y       z     vdW  Elec       q    Type
REMARK                         _______ _______ _______ _____ _____    ______ ____
ROOT
ATOM      1  O   UNL     1       7.843  -1.397   0.000  0.00  0.00    +0.000 OA
ATOM      2  C   UNL     1       6.414  -1.397   0.000  0.00  0.00    +0.000 A 
ATOM      3  C   UNL     1       5.700  -0.984   0.000  0.00  0.00    +0.000 A 
ATOM      4  C   UNL     1       7.129  -0.984   0.000  0.00  0.00    +0.000 A 
ATOM      5  C   UNL     1       5.700  -0.159   0.000  0.00  0.00    +0.000 A 
ATOM      6  C   UNL     1       7.129  -0.159   0.000  0.00  0.00    +0.000 A 
ATOM      7  C   UNL     1       6.414   0.253   0.000  0.00  0.00    +0.000 A 
ENDROOT
BRANCH   5  11
ATOM      8  O   UNL     1       4.985   1.078   0.000  0.00  0.00    +0.000 OA
ATOM      9  O   UNL     1       2.842  -0.159   0.000  0.00  0.00    +0.000 OA
ATOM     10  O   UNL     1       2.096   1.076   0.000  0.00  0.00    +0.000 OA
ATOM     11  C   UNL     1       4.985   0.253   0.000  0.00  0.00    +0.000 A 
ATOM     12  C   UNL     1       4.271   1.491   0.000  0.00  0.00    +0.000 A 
ATOM     13  C   UNL     1       3.556   1.078   0.000  0.00  0.00    +0.000 A 
ATOM     14  C   UNL     1       4.271  -0.159   0.000  0.00  0.00    +0.000 A 
ATOM     15  C   UNL     1       3.556   0.253   0.000  0.00  0.00    +0.000 A 
ATOM     16  C   UNL     1       2.806   1.496   0.000  0.00  0.00    +0.000 A 
ATOM     17  C   UNL     1       4.284   2.350   0.000  0.00  0.00    +0.000 A 
ATOM     18  C   UNL     1       3.543   2.785   0.000  0.00  0.00    +0.000 A 
ATOM     19  C   UNL     1       2.799   2.356   0.000  0.00  0.00    +0.000 A 
BRANCH  18  20
ATOM     20  O   UNL     1       3.546   3.610   0.000  0.00  0.00    +0.000 OA
BRANCH  20  21
ATOM     21  S   UNL     1       2.833   4.026   0.000  0.00  0.00    +0.000 S 
ATOM     22  O   UNL     1       2.121   4.441   0.000  0.00  0.00    +0.000 OA
ATOM     23  O   UNL     1       3.249   4.739   0.000  0.00  0.00    +0.000 OA
ATOM     24  O   UNL     1       2.418   3.313   0.000  0.00  0.00    +0.000 OA
ENDBRANCH  20  21
ENDBRANCH  18  20
ENDBRANCH   5  11
BRANCH   2  25
ATOM     25  O   UNL     1       6.414  -2.222   0.000  0.00  0.00    +0.000 OA
BRANCH  25  34
ATOM     26  O   UNL     1       4.985  -2.222   0.000  0.00  0.00    +0.000 OA
ATOM     27  O   UNL     1       4.985  -4.697   0.000  0.00  0.00    +0.000 OA
ATOM     28  O   UNL     1       3.556  -3.872   0.000  0.00  0.00    +0.000 OA
ATOM     29  O   UNL     1       6.414  -3.872   0.000  0.00  0.00    +0.000 OA
ATOM     30  C   UNL     1       4.985  -3.872   0.000  0.00  0.00    +0.000 C 
ATOM     31  C   UNL     1       4.271  -3.459   0.000  0.00  0.00    +0.000 C 
ATOM     32  C   UNL     1       5.700  -3.459   0.000  0.00  0.00    +0.000 C 
ATOM     33  C   UNL     1       4.271  -2.634   0.000  0.00  0.00    +0.000 C 
ATOM     34  C   UNL     1       5.700  -2.634   0.000  0.00  0.00    +0.000 C 
BRANCH  33  36
ATOM     35  O   UNL     1       2.842  -2.634   0.000  0.00  0.00    +0.000 OA
ATOM     36  C   UNL     1       3.556  -2.222   0.000  0.00  0.00    +0.000 C 
ENDBRANCH  33  36
ENDBRANCH  25  34
ENDBRANCH   2  25
TORSDOF 6
