REMARK  Name = 44258234
REMARK  4 active torsions:
REMARK  status: ('A' for Active; 'I' for Inactive)
REMARK    1  A    between atoms: S_1  and  O_3
REMARK    2  A    between atoms: O_3  and  C_19
REMARK    3  A    between atoms: O_6  and  C_24
REMARK    4  A    between atoms: C_13  and  C_14
REMARK                            x       y       z     vdW  Elec       q    Type
REMARK                         _______ _______ _______ _____ _____    ______ ____
ROOT
ATOM      1  O   UNL     1       6.436  -0.223   0.000  0.00  0.00    +0.000 OA
ATOM      2  O   UNL     1       4.994   2.280   0.000  0.00  0.00    +0.000 OA
ATOM      3  O   UNL     1       6.436   2.252   0.000  0.00  0.00    +0.000 OA
ATOM      4  C   UNL     1       5.722   1.014   0.000  0.00  0.00    +0.000 A 
ATOM      5  C   UNL     1       5.722   0.189   0.000  0.00  0.00    +0.000 A 
ATOM      6  C   UNL     1       7.151   0.189   0.000  0.00  0.00    +0.000 A 
ATOM      7  C   UNL     1       6.436   1.427   0.000  0.00  0.00    +0.000 A 
ATOM      8  C   UNL     1       4.984   1.456   0.000  0.00  0.00    +0.000 A 
ATOM      9  C   UNL     1       7.151   1.014   0.000  0.00  0.00    +0.000 A 
ATOM     10  C   UNL     1       4.984  -0.252   0.000  0.00  0.00    +0.000 A 
ATOM     11  C   UNL     1       4.237   0.172   0.000  0.00  0.00    +0.000 A 
ATOM     12  C   UNL     1       4.237   1.032   0.000  0.00  0.00    +0.000 A 
ENDROOT
BRANCH   6  14
ATOM     13  O   UNL     1       8.580  -2.286   0.000  0.00  0.00    +0.000 OA
ATOM     14  C   UNL     1       7.865  -0.223   0.000  0.00  0.00    +0.000 A 
ATOM     15  C   UNL     1       7.865  -1.048   0.000  0.00  0.00    +0.000 A 
ATOM     16  C   UNL     1       8.580   0.189   0.000  0.00  0.00    +0.000 A 
ATOM     17  C   UNL     1       8.580  -1.461   0.000  0.00  0.00    +0.000 A 
ATOM     18  C   UNL     1       9.294  -1.048   0.000  0.00  0.00    +0.000 A 
ATOM     19  C   UNL     1       9.294  -0.223   0.000  0.00  0.00    +0.000 A 
BRANCH  18  20
ATOM     20  O   UNL     1      10.009  -1.461   0.000  0.00  0.00    +0.000 OA
ATOM     21  C   UNL     1      10.723  -1.048   0.000  0.00  0.00    +0.000 C 
ENDBRANCH  18  20
ENDBRANCH   6  14
BRANCH  11  22
ATOM     22  O   UNL     1       3.524  -0.243   0.000  0.00  0.00    +0.000 OA
BRANCH  22  23
ATOM     23  S   UNL     1       2.808   0.167   0.000  0.00  0.00    +0.000 S 
ATOM     24  O   UNL     1       2.092   0.577   0.000  0.00  0.00    +0.000 OA
ATOM     25  O   UNL     1       2.398  -0.549   0.000  0.00  0.00    +0.000 OA
ATOM     26  O   UNL     1       3.218   0.883   0.000  0.00  0.00    +0.000 OA
ENDBRANCH  22  23
ENDBRANCH  11  22
TORSDOF 4
