REMARK  Name = 44258206
REMARK  8 active torsions:
REMARK  status: ('A' for Active; 'I' for Inactive)
REMARK    1  A    between atoms: O_3  and  C_28
REMARK    2  A    between atoms: O_3  and  C_31
REMARK    3  A    between atoms: O_4  and  C_27
REMARK    4  A    between atoms: O_4  and  C_32
REMARK    5  A    between atoms: O_16  and  C_34
REMARK    6  A    between atoms: C_25  and  C_29
REMARK    7  A    between atoms: C_26  and  C_30
REMARK    8  A    between atoms: C_39  and  C_42
REMARK                            x       y       z     vdW  Elec       q    Type
REMARK                         _______ _______ _______ _____ _____    ______ ____
ROOT
ATOM      1  O   UNL     1       7.114  -0.382   0.000  0.00  0.00    +0.000 OA
ATOM      2  O   UNL     1       4.225  -0.368   0.000  0.00  0.00    +0.000 OA
ATOM      3  O   UNL     1       4.975   0.864   0.000  0.00  0.00    +0.000 OA
ATOM      4  C   UNL     1       5.665  -2.084   0.000  0.00  0.00    +0.000 A 
ATOM      5  C   UNL     1       6.408  -1.651   0.000  0.00  0.00    +0.000 A 
ATOM      6  C   UNL     1       4.923  -1.651   0.000  0.00  0.00    +0.000 A 
ATOM      7  C   UNL     1       6.398  -0.792   0.000  0.00  0.00    +0.000 A 
ATOM      8  C   UNL     1       5.685  -0.377   0.000  0.00  0.00    +0.000 A 
ATOM      9  C   UNL     1       4.933  -0.792   0.000  0.00  0.00    +0.000 A 
ATOM     10  C   UNL     1       7.117   0.443   0.000  0.00  0.00    +0.000 A 
ATOM     11  C   UNL     1       5.688   0.449   0.000  0.00  0.00    +0.000 A 
ATOM     12  C   UNL     1       6.404   0.858   0.000  0.00  0.00    +0.000 A 
ENDROOT
BRANCH  10  16
ATOM     13  C   UNL     1       9.265   1.672   0.000  0.00  0.00    +0.000 A 
ATOM     14  C   UNL     1       9.262   0.847   0.000  0.00  0.00    +0.000 A 
ATOM     15  C   UNL     1       8.552   2.087   0.000  0.00  0.00    +0.000 A 
ATOM     16  C   UNL     1       7.833   0.853   0.000  0.00  0.00    +0.000 A 
ATOM     17  C   UNL     1       8.546   0.437   0.000  0.00  0.00    +0.000 A 
ATOM     18  C   UNL     1       7.836   1.678   0.000  0.00  0.00    +0.000 A 
BRANCH  14  19
ATOM     19  O   UNL     1       9.975   0.432   0.000  0.00  0.00    +0.000 OA
ATOM     20  C   UNL     1       9.972  -0.393   0.000  0.00  0.00    +0.000 C 
ENDBRANCH  14  19
BRANCH  13  21
ATOM     21  O   UNL     1       9.981   2.082   0.000  0.00  0.00    +0.000 OA
BRANCH  21  30
ATOM     22  O   UNL     1      10.701   3.317   0.000  0.00  0.00    +0.000 OA
ATOM     23  O   UNL     1       8.562   4.562   0.000  0.00  0.00    +0.000 OA
ATOM     24  O   UNL     1       9.994   5.382   0.000  0.00  0.00    +0.000 OA
ATOM     25  O   UNL     1       8.556   2.912   0.000  0.00  0.00    +0.000 OA
ATOM     26  C   UNL     1       9.275   4.147   0.000  0.00  0.00    +0.000 C 
ATOM     27  C   UNL     1       9.991   4.557   0.000  0.00  0.00    +0.000 C 
ATOM     28  C   UNL     1       9.272   3.322   0.000  0.00  0.00    +0.000 C 
ATOM     29  C   UNL     1      10.704   4.142   0.000  0.00  0.00    +0.000 C 
ATOM     30  C   UNL     1       9.985   2.907   0.000  0.00  0.00    +0.000 C 
BRANCH  29  33
ATOM     31  O   UNL     1      12.133   4.136   0.000  0.00  0.00    +0.000 OA
ATOM     32  O   UNL     1      11.423   5.376   0.000  0.00  0.00    +0.000 OA
ATOM     33  C   UNL     1      11.420   4.551   0.000  0.00  0.00    +0.000 C 
ENDBRANCH  29  33
ENDBRANCH  21  30
ENDBRANCH  13  21
ENDBRANCH  10  16
BRANCH   4  34
ATOM     34  O   UNL     1       5.665  -2.909   0.000  0.00  0.00    +0.000 OA
BRANCH  34  43
ATOM     35  O   UNL     1       4.236  -2.909   0.000  0.00  0.00    +0.000 OA
ATOM     36  O   UNL     1       4.236  -5.384   0.000  0.00  0.00    +0.000 OA
ATOM     37  O   UNL     1       2.808  -4.559   0.000  0.00  0.00    +0.000 OA
ATOM     38  O   UNL     1       5.665  -4.559   0.000  0.00  0.00    +0.000 OA
ATOM     39  C   UNL     1       4.236  -4.559   0.000  0.00  0.00    +0.000 C 
ATOM     40  C   UNL     1       3.522  -4.146   0.000  0.00  0.00    +0.000 C 
ATOM     41  C   UNL     1       4.951  -4.146   0.000  0.00  0.00    +0.000 C 
ATOM     42  C   UNL     1       3.522  -3.321   0.000  0.00  0.00    +0.000 C 
ATOM     43  C   UNL     1       4.951  -3.321   0.000  0.00  0.00    +0.000 C 
BRANCH  42  46
ATOM     44  O   UNL     1       2.093  -3.321   0.000  0.00  0.00    +0.000 OA
ATOM     45  O   UNL     1       2.808  -2.084   0.000  0.00  0.00    +0.000 OA
ATOM     46  C   UNL     1       2.808  -2.909   0.000  0.00  0.00    +0.000 C 
ENDBRANCH  42  46
ENDBRANCH  34  43
ENDBRANCH   4  34
TORSDOF 8
