REMARK  Name = 42607811
REMARK  10 active torsions:
REMARK  status: ('A' for Active; 'I' for Inactive)
REMARK    1  A    between atoms: O_1  and  C_17
REMARK    2  A    between atoms: O_1  and  C_19
REMARK    3  A    between atoms: O_7  and  C_22
REMARK    4  A    between atoms: O_7  and  C_27
REMARK    5  A    between atoms: O_9  and  C_25
REMARK    6  A    between atoms: O_9  and  C_28
REMARK    7  A    between atoms: C_16  and  C_25
REMARK    8  A    between atoms: C_24  and  C_26
REMARK    9  A    between atoms: C_28  and  C_35
REMARK   10  A    between atoms: C_31  and  C_32
REMARK                            x       y       z     vdW  Elec       q    Type
REMARK                         _______ _______ _______ _____ _____    ______ ____
ROOT
ATOM      1  O   UNL     1       4.236  -1.772   0.000  0.00  0.00    +0.000 OA
ATOM      2  O   UNL     1       4.236  -4.247   0.000  0.00  0.00    +0.000 OA
ATOM      3  O   UNL     1       2.808  -3.422   0.000  0.00  0.00    +0.000 OA
ATOM      4  C   UNL     1       4.951  -3.010   0.000  0.00  0.00    +0.000 C 
ATOM      5  C   UNL     1       4.236  -3.422   0.000  0.00  0.00    +0.000 C 
ATOM      6  C   UNL     1       3.522  -3.010   0.000  0.00  0.00    +0.000 C 
ATOM      7  C   UNL     1       4.951  -2.185   0.000  0.00  0.00    +0.000 C 
ATOM      8  C   UNL     1       3.522  -2.185   0.000  0.00  0.00    +0.000 C 
ENDROOT
BRANCH   8  10
ATOM      9  O   UNL     1       2.093  -2.185   0.000  0.00  0.00    +0.000 OA
ATOM     10  C   UNL     1       2.808  -1.772   0.000  0.00  0.00    +0.000 C 
ENDBRANCH   8  10
BRANCH   4  11
ATOM     11  O   UNL     1       5.665  -3.422   0.000  0.00  0.00    +0.000 OA
BRANCH  11  17
ATOM     12  O   UNL     1       6.466  -2.189   0.000  0.00  0.00    +0.000 OA
ATOM     13  O   UNL     1       8.400  -2.320   0.000  0.00  0.00    +0.000 OA
ATOM     14  O   UNL     1       7.305  -4.152   0.000  0.00  0.00    +0.000 OA
ATOM     15  C   UNL     1       7.686  -2.732   0.000  0.00  0.00    +0.000 C 
ATOM     16  C   UNL     1       7.133  -3.345   0.000  0.00  0.00    +0.000 C 
ATOM     17  C   UNL     1       6.380  -3.010   0.000  0.00  0.00    +0.000 C 
ATOM     18  C   UNL     1       7.273  -2.018   0.000  0.00  0.00    +0.000 C 
BRANCH  15  19
ATOM     19  C   UNL     1       8.299  -3.284   0.000  0.00  0.00    +0.000 C 
BRANCH  19  20
ATOM     20  O   UNL     1       9.083  -3.030   0.000  0.00  0.00    +0.000 OA
BRANCH  20  22
ATOM     21  O   UNL     1       9.525  -4.388   0.000  0.00  0.00    +0.000 OA
ATOM     22  C   UNL     1       9.696  -3.582   0.000  0.00  0.00    +0.000 C 
BRANCH  22  24
ATOM     23  N   UNL     1      11.554  -2.544   0.000  0.00  0.00    +0.000 NA
ATOM     24  C   UNL     1      10.481  -3.327   0.000  0.00  0.00    +0.000 A 
ATOM     25  C   UNL     1      11.144  -3.809   0.000  0.00  0.00    +0.000 A 
ATOM     26  C   UNL     1      10.734  -2.546   0.000  0.00  0.00    +0.000 A 
ATOM     27  C   UNL     1      11.811  -3.323   0.000  0.00  0.00    +0.000 A 
ATOM     28  C   UNL     1      11.232  -4.630   0.000  0.00  0.00    +0.000 A 
ATOM     29  C   UNL     1      12.565  -3.657   0.000  0.00  0.00    +0.000 A 
ATOM     30  C   UNL     1      11.986  -4.964   0.000  0.00  0.00    +0.000 A 
ATOM     31  C   UNL     1      12.652  -4.478   0.000  0.00  0.00    +0.000 A 
ENDBRANCH  22  24
ENDBRANCH  20  22
ENDBRANCH  19  20
ENDBRANCH  15  19
ENDBRANCH  11  17
ENDBRANCH   4  11
BRANCH   7  32
ATOM     32  O   UNL     1       5.665  -1.772   0.000  0.00  0.00    +0.000 OA
BRANCH  32  33
ATOM     33  C   UNL     1       5.665  -0.947   0.000  0.00  0.00    +0.000 A 
ATOM     34  C   UNL     1       6.380  -0.535   0.000  0.00  0.00    +0.000 A 
ATOM     35  C   UNL     1       4.951  -0.535   0.000  0.00  0.00    +0.000 A 
ATOM     36  C   UNL     1       5.665   0.703   0.000  0.00  0.00    +0.000 A 
ATOM     37  C   UNL     1       6.380   0.290   0.000  0.00  0.00    +0.000 A 
ATOM     38  C   UNL     1       4.951   0.290   0.000  0.00  0.00    +0.000 A 
BRANCH  36  42
ATOM     39  O   UNL     1       6.380   1.940   0.000  0.00  0.00    +0.000 OA
ATOM     40  O   UNL     1       4.236   3.178   0.000  0.00  0.00    +0.000 OA
ATOM     41  O   UNL     1       7.853   4.452   0.000  0.00  0.00    +0.000 OA
ATOM     42  C   UNL     1       5.665   1.528   0.000  0.00  0.00    +0.000 C 
ATOM     43  C   UNL     1       4.951   1.940   0.000  0.00  0.00    +0.000 C 
ATOM     44  C   UNL     1       4.951   2.765   0.000  0.00  0.00    +0.000 C 
ATOM     45  C   UNL     1       6.380   2.765   0.000  0.00  0.00    +0.000 A 
ATOM     46  C   UNL     1       5.665   3.178   0.000  0.00  0.00    +0.000 A 
ATOM     47  C   UNL     1       7.131   3.183   0.000  0.00  0.00    +0.000 A 
ATOM     48  C   UNL     1       5.652   4.037   0.000  0.00  0.00    +0.000 A 
ATOM     49  C   UNL     1       7.137   4.043   0.000  0.00  0.00    +0.000 A 
ATOM     50  C   UNL     1       6.393   4.472   0.000  0.00  0.00    +0.000 A 
ENDBRANCH  36  42
ENDBRANCH  32  33
ENDBRANCH   7  32
TORSDOF 10
