REMARK  Name = 44258271
REMARK  6 active torsions:
REMARK  status: ('A' for Active; 'I' for Inactive)
REMARK    1  A    between atoms: O_2  and  C_18
REMARK    2  A    between atoms: O_2  and  C_20
REMARK    3  A    between atoms: O_11  and  C_32
REMARK    4  A    between atoms: O_12  and  C_33
REMARK    5  A    between atoms: C_17  and  C_19
REMARK    6  A    between atoms: C_27  and  C_29
REMARK                            x       y       z     vdW  Elec       q    Type
REMARK                         _______ _______ _______ _____ _____    ______ ____
ROOT
ATOM      1  O   UNL     1       7.114   0.774   0.000  0.00  0.00    +0.000 OA
ATOM      2  O   UNL     1       4.225   0.787   0.000  0.00  0.00    +0.000 OA
ATOM      3  O   UNL     1       4.975   2.019   0.000  0.00  0.00    +0.000 OA
ATOM      4  C   UNL     1       5.665  -0.928   0.000  0.00  0.00    +0.000 A 
ATOM      5  C   UNL     1       6.408  -0.495   0.000  0.00  0.00    +0.000 A 
ATOM      6  C   UNL     1       4.923  -0.495   0.000  0.00  0.00    +0.000 A 
ATOM      7  C   UNL     1       6.398   0.364   0.000  0.00  0.00    +0.000 A 
ATOM      8  C   UNL     1       5.685   0.779   0.000  0.00  0.00    +0.000 A 
ATOM      9  C   UNL     1       4.933   0.364   0.000  0.00  0.00    +0.000 A 
ATOM     10  C   UNL     1       5.688   1.604   0.000  0.00  0.00    +0.000 A 
ATOM     11  C   UNL     1       7.117   1.599   0.000  0.00  0.00    +0.000 A 
ATOM     12  C   UNL     1       6.404   2.014   0.000  0.00  0.00    +0.000 A 
ENDROOT
BRANCH  11  14
ATOM     13  O   UNL     1       9.981   3.238   0.000  0.00  0.00    +0.000 OA
ATOM     14  C   UNL     1       7.833   2.009   0.000  0.00  0.00    +0.000 A 
ATOM     15  C   UNL     1       8.546   1.593   0.000  0.00  0.00    +0.000 A 
ATOM     16  C   UNL     1       7.836   2.833   0.000  0.00  0.00    +0.000 A 
ATOM     17  C   UNL     1       8.552   3.243   0.000  0.00  0.00    +0.000 A 
ATOM     18  C   UNL     1       9.262   2.003   0.000  0.00  0.00    +0.000 A 
ATOM     19  C   UNL     1       9.265   2.828   0.000  0.00  0.00    +0.000 A 
BRANCH  17  20
ATOM     20  O   UNL     1       8.556   4.068   0.000  0.00  0.00    +0.000 OA
ATOM     21  C   UNL     1       7.843   4.484   0.000  0.00  0.00    +0.000 C 
ENDBRANCH  17  20
BRANCH  18  22
ATOM     22  O   UNL     1       9.975   1.588   0.000  0.00  0.00    +0.000 OA
ATOM     23  C   UNL     1       9.972   0.763   0.000  0.00  0.00    +0.000 C 
ENDBRANCH  18  22
ENDBRANCH  11  14
BRANCH   4  24
ATOM     24  O   UNL     1       5.665  -1.753   0.000  0.00  0.00    +0.000 OA
BRANCH  24  33
ATOM     25  O   UNL     1       4.236  -1.753   0.000  0.00  0.00    +0.000 OA
ATOM     26  O   UNL     1       4.236  -4.228   0.000  0.00  0.00    +0.000 OA
ATOM     27  O   UNL     1       2.808  -3.403   0.000  0.00  0.00    +0.000 OA
ATOM     28  O   UNL     1       5.665  -3.403   0.000  0.00  0.00    +0.000 OA
ATOM     29  C   UNL     1       4.236  -3.403   0.000  0.00  0.00    +0.000 C 
ATOM     30  C   UNL     1       3.522  -2.990   0.000  0.00  0.00    +0.000 C 
ATOM     31  C   UNL     1       4.951  -2.990   0.000  0.00  0.00    +0.000 C 
ATOM     32  C   UNL     1       3.522  -2.165   0.000  0.00  0.00    +0.000 C 
ATOM     33  C   UNL     1       4.951  -2.165   0.000  0.00  0.00    +0.000 C 
BRANCH  32  36
ATOM     34  O   UNL     1       2.093  -2.165   0.000  0.00  0.00    +0.000 OA
ATOM     35  O   UNL     1       2.808  -0.928   0.000  0.00  0.00    +0.000 OA
ATOM     36  C   UNL     1       2.808  -1.753   0.000  0.00  0.00    +0.000 C 
ENDBRANCH  32  36
ENDBRANCH  24  33
ENDBRANCH   4  24
TORSDOF 6
