REMARK  Name = 44257729
REMARK  6 active torsions:
REMARK  status: ('A' for Active; 'I' for Inactive)
REMARK    1  A    between atoms: O_5  and  C_21
REMARK    2  A    between atoms: O_5  and  C_28
REMARK    3  A    between atoms: C_18  and  C_20
REMARK    4  A    between atoms: C_19  and  C_21
REMARK    5  A    between atoms: C_28  and  C_31
REMARK    6  A    between atoms: C_30  and  C_32
REMARK                            x       y       z     vdW  Elec       q    Type
REMARK                         _______ _______ _______ _____ _____    ______ ____
ROOT
ATOM      1  O   UNL     1       7.809  -0.114   0.000  0.00  0.00    +0.000 OA
ATOM      2  O   UNL     1       7.809   2.361   0.000  0.00  0.00    +0.000 OA
ATOM      3  O   UNL     1       9.238   1.536   0.000  0.00  0.00    +0.000 OA
ATOM      4  O   UNL     1       6.380   1.536   0.000  0.00  0.00    +0.000 OA
ATOM      5  C   UNL     1       7.809   1.536   0.000  0.00  0.00    +0.000 C 
ATOM      6  C   UNL     1       8.523   1.124   0.000  0.00  0.00    +0.000 C 
ATOM      7  C   UNL     1       7.094   1.124   0.000  0.00  0.00    +0.000 C 
ATOM      8  C   UNL     1       8.523   0.299   0.000  0.00  0.00    +0.000 C 
ATOM      9  C   UNL     1       7.094   0.299   0.000  0.00  0.00    +0.000 C 
ENDROOT
BRANCH   8  14
ATOM     10  O   UNL     1       9.952   1.124   0.000  0.00  0.00    +0.000 OA
ATOM     11  O   UNL     1       8.523  -1.351   0.000  0.00  0.00    +0.000 OA
ATOM     12  O   UNL     1      11.404  -1.380   0.000  0.00  0.00    +0.000 OA
ATOM     13  O   UNL     1      11.395   1.152   0.000  0.00  0.00    +0.000 OA
ATOM     14  C   UNL     1       9.238  -0.114   0.000  0.00  0.00    +0.000 A 
ATOM     15  C   UNL     1       9.952   0.299   0.000  0.00  0.00    +0.000 A 
ATOM     16  C   UNL     1       9.238  -0.939   0.000  0.00  0.00    +0.000 A 
ATOM     17  C   UNL     1      10.667  -0.114   0.000  0.00  0.00    +0.000 A 
ATOM     18  C   UNL     1       9.952  -1.351   0.000  0.00  0.00    +0.000 A 
ATOM     19  C   UNL     1      10.667  -0.939   0.000  0.00  0.00    +0.000 A 
ATOM     20  C   UNL     1      11.404   0.327   0.000  0.00  0.00    +0.000 A 
ATOM     21  C   UNL     1      12.152  -0.097   0.000  0.00  0.00    +0.000 A 
ATOM     22  C   UNL     1      12.152  -0.956   0.000  0.00  0.00    +0.000 A 
BRANCH  22  24
ATOM     23  O   UNL     1      15.003  -2.617   0.000  0.00  0.00    +0.000 OA
ATOM     24  C   UNL     1      12.864  -1.371   0.000  0.00  0.00    +0.000 A 
ATOM     25  C   UNL     1      13.581  -0.962   0.000  0.00  0.00    +0.000 A 
ATOM     26  C   UNL     1      12.861  -2.196   0.000  0.00  0.00    +0.000 A 
ATOM     27  C   UNL     1      14.293  -1.377   0.000  0.00  0.00    +0.000 A 
ATOM     28  C   UNL     1      13.574  -2.611   0.000  0.00  0.00    +0.000 A 
ATOM     29  C   UNL     1      14.290  -2.202   0.000  0.00  0.00    +0.000 A 
ENDBRANCH  22  24
ENDBRANCH   8  14
BRANCH   9  30
ATOM     30  C   UNL     1       6.380  -0.114   0.000  0.00  0.00    +0.000 C 
BRANCH  30  31
ATOM     31  O   UNL     1       5.665   0.299   0.000  0.00  0.00    +0.000 OA
BRANCH  31  33
ATOM     32  O   UNL     1       4.951  -0.939   0.000  0.00  0.00    +0.000 OA
ATOM     33  C   UNL     1       4.951  -0.114   0.000  0.00  0.00    +0.000 C 
BRANCH  33  37
ATOM     34  O   UNL     1       3.522   2.361   0.000  0.00  0.00    +0.000 OA
ATOM     35  O   UNL     1       2.093  -0.114   0.000  0.00  0.00    +0.000 OA
ATOM     36  O   UNL     1       2.093   1.536   0.000  0.00  0.00    +0.000 OA
ATOM     37  C   UNL     1       4.236   0.299   0.000  0.00  0.00    +0.000 A 
ATOM     38  C   UNL     1       3.522  -0.114   0.000  0.00  0.00    +0.000 A 
ATOM     39  C   UNL     1       4.236   1.124   0.000  0.00  0.00    +0.000 A 
ATOM     40  C   UNL     1       3.522   1.536   0.000  0.00  0.00    +0.000 A 
ATOM     41  C   UNL     1       2.808   0.299   0.000  0.00  0.00    +0.000 A 
ATOM     42  C   UNL     1       2.808   1.124   0.000  0.00  0.00    +0.000 A 
ENDBRANCH  33  37
ENDBRANCH  31  33
ENDBRANCH  30  31
ENDBRANCH   9  30
TORSDOF 6
