REMARK  Name = 42608106
REMARK  7 active torsions:
REMARK  status: ('A' for Active; 'I' for Inactive)
REMARK    1  A    between atoms: O_2  and  C_15
REMARK    2  A    between atoms: O_4  and  C_19
REMARK    3  A    between atoms: O_5  and  C_20
REMARK    4  A    between atoms: O_6  and  C_21
REMARK    5  A    between atoms: O_7  and  C_22
REMARK    6  A    between atoms: O_8  and  C_23
REMARK    7  A    between atoms: C_9  and  C_11
REMARK                            x       y       z     vdW  Elec       q    Type
REMARK                         _______ _______ _______ _____ _____    ______ ____
ROOT
ATOM      1  O   UNL     1       5.245  -0.225   0.000  0.00  0.00    +0.000 OA
ATOM      2  O   UNL     1       5.236   2.307   0.000  0.00  0.00    +0.000 OA
ATOM      3  C   UNL     1       5.993   0.199   0.000  0.00  0.00    +0.000 C 
ATOM      4  C   UNL     1       5.993   1.058   0.000  0.00  0.00    +0.000 C 
ATOM      5  C   UNL     1       4.508   1.041   0.000  0.00  0.00    +0.000 A 
ATOM      6  C   UNL     1       5.245   1.482   0.000  0.00  0.00    +0.000 C 
ATOM      7  C   UNL     1       4.508   0.216   0.000  0.00  0.00    +0.000 A 
ATOM      8  C   UNL     1       3.793   1.454   0.000  0.00  0.00    +0.000 A 
ATOM      9  C   UNL     1       3.793  -0.196   0.000  0.00  0.00    +0.000 A 
ATOM     10  C   UNL     1       3.079   1.041   0.000  0.00  0.00    +0.000 A 
ATOM     11  C   UNL     1       3.079   0.216   0.000  0.00  0.00    +0.000 A 
ENDROOT
BRANCH   3  12
ATOM     12  C   UNL     1       6.706  -0.216   0.000  0.00  0.00    +0.000 A 
ATOM     13  C   UNL     1       7.422   0.194   0.000  0.00  0.00    +0.000 A 
ATOM     14  C   UNL     1       6.703  -1.041   0.000  0.00  0.00    +0.000 A 
ATOM     15  C   UNL     1       7.415  -1.456   0.000  0.00  0.00    +0.000 A 
ATOM     16  C   UNL     1       8.135  -0.222   0.000  0.00  0.00    +0.000 A 
ATOM     17  C   UNL     1       8.132  -1.047   0.000  0.00  0.00    +0.000 A 
BRANCH  15  18
ATOM     18  O   UNL     1       7.412  -2.281   0.000  0.00  0.00    +0.000 OA
ATOM     19  C   UNL     1       6.696  -2.691   0.000  0.00  0.00    +0.000 C 
ENDBRANCH  15  18
BRANCH  16  20
ATOM     20  O   UNL     1       8.851   0.188   0.000  0.00  0.00    +0.000 OA
ATOM     21  C   UNL     1       8.854   1.013   0.000  0.00  0.00    +0.000 C 
ENDBRANCH  16  20
BRANCH  17  22
ATOM     22  O   UNL     1       8.844  -1.462   0.000  0.00  0.00    +0.000 OA
ATOM     23  C   UNL     1       9.560  -1.052   0.000  0.00  0.00    +0.000 C 
ENDBRANCH  17  22
ENDBRANCH   3  12
BRANCH   8  24
ATOM     24  O   UNL     1       3.793   2.279   0.000  0.00  0.00    +0.000 OA
ATOM     25  C   UNL     1       3.079   2.691   0.000  0.00  0.00    +0.000 C 
ENDBRANCH   8  24
BRANCH  10  26
ATOM     26  O   UNL     1       2.364   1.454   0.000  0.00  0.00    +0.000 OA
ATOM     27  C   UNL     1       1.650   1.041   0.000  0.00  0.00    +0.000 C 
ENDBRANCH  10  26
BRANCH  11  28
ATOM     28  O   UNL     1       2.364  -0.196   0.000  0.00  0.00    +0.000 OA
ATOM     29  C   UNL     1       2.364  -1.021   0.000  0.00  0.00    +0.000 C 
ENDBRANCH  11  28
TORSDOF 7
