REMARK  Name = 44258620
REMARK  4 active torsions:
REMARK  status: ('A' for Active; 'I' for Inactive)
REMARK    1  A    between atoms: O_2  and  C_18
REMARK    2  A    between atoms: O_2  and  C_21
REMARK    3  A    between atoms: C_19  and  C_20
REMARK    4  A    between atoms: C_28  and  C_30
REMARK                            x       y       z     vdW  Elec       q    Type
REMARK                         _______ _______ _______ _____ _____    ______ ____
ROOT
ATOM      1  O   UNL     1       7.131   0.812   0.000  0.00  0.00    +0.000 OA
ATOM      2  O   UNL     1       7.094  -0.843   0.000  0.00  0.00    +0.000 OA
ATOM      3  O   UNL     1       4.236   0.807   0.000  0.00  0.00    +0.000 OA
ATOM      4  O   UNL     1       4.933   2.070   0.000  0.00  0.00    +0.000 OA
ATOM      5  C   UNL     1       5.665  -0.843   0.000  0.00  0.00    +0.000 A 
ATOM      6  C   UNL     1       6.380  -0.431   0.000  0.00  0.00    +0.000 A 
ATOM      7  C   UNL     1       4.951  -0.431   0.000  0.00  0.00    +0.000 A 
ATOM      8  C   UNL     1       6.380   0.394   0.000  0.00  0.00    +0.000 A 
ATOM      9  C   UNL     1       5.665   0.807   0.000  0.00  0.00    +0.000 A 
ATOM     10  C   UNL     1       4.951   0.394   0.000  0.00  0.00    +0.000 A 
ATOM     11  C   UNL     1       5.652   1.666   0.000  0.00  0.00    +0.000 A 
ATOM     12  C   UNL     1       7.137   1.672   0.000  0.00  0.00    +0.000 A 
ATOM     13  C   UNL     1       6.393   2.102   0.000  0.00  0.00    +0.000 A 
ENDROOT
BRANCH  12  17
ATOM     14  O   UNL     1       8.576   4.141   0.000  0.00  0.00    +0.000 OA
ATOM     15  O   UNL     1       9.995   1.661   0.000  0.00  0.00    +0.000 OA
ATOM     16  O   UNL     1      10.001   3.311   0.000  0.00  0.00    +0.000 OA
ATOM     17  C   UNL     1       7.853   2.082   0.000  0.00  0.00    +0.000 A 
ATOM     18  C   UNL     1       8.566   1.666   0.000  0.00  0.00    +0.000 A 
ATOM     19  C   UNL     1       7.856   2.907   0.000  0.00  0.00    +0.000 A 
ATOM     20  C   UNL     1       8.572   3.316   0.000  0.00  0.00    +0.000 A 
ATOM     21  C   UNL     1       9.282   2.076   0.000  0.00  0.00    +0.000 A 
ATOM     22  C   UNL     1       9.285   2.901   0.000  0.00  0.00    +0.000 A 
ENDBRANCH  12  17
BRANCH   5  23
ATOM     23  O   UNL     1       5.665  -1.668   0.000  0.00  0.00    +0.000 OA
BRANCH  23  31
ATOM     24  O   UNL     1       4.236  -1.668   0.000  0.00  0.00    +0.000 OA
ATOM     25  O   UNL     1       4.236  -4.143   0.000  0.00  0.00    +0.000 OA
ATOM     26  O   UNL     1       5.665  -3.318   0.000  0.00  0.00    +0.000 OA
ATOM     27  O   UNL     1       2.808  -3.318   0.000  0.00  0.00    +0.000 OA
ATOM     28  C   UNL     1       4.236  -3.318   0.000  0.00  0.00    +0.000 C 
ATOM     29  C   UNL     1       4.951  -2.906   0.000  0.00  0.00    +0.000 C 
ATOM     30  C   UNL     1       3.522  -2.906   0.000  0.00  0.00    +0.000 C 
ATOM     31  C   UNL     1       4.951  -2.081   0.000  0.00  0.00    +0.000 C 
ATOM     32  C   UNL     1       3.522  -2.081   0.000  0.00  0.00    +0.000 C 
BRANCH  32  35
ATOM     33  O   UNL     1       2.093  -2.081   0.000  0.00  0.00    +0.000 OA
ATOM     34  O   UNL     1       2.808  -0.843   0.000  0.00  0.00    +0.000 OA
ATOM     35  C   UNL     1       2.808  -1.668   0.000  0.00  0.00    +0.000 C 
ENDBRANCH  32  35
ENDBRANCH  23  31
ENDBRANCH   5  23
TORSDOF 4
