REMARK  Name = 44257947
REMARK  3 active torsions:
REMARK  status: ('A' for Active; 'I' for Inactive)
REMARK    1  A    between atoms: C_15  and  C_20
REMARK    2  A    between atoms: C_16  and  C_22
REMARK    3  A    between atoms: C_32  and  C_34
REMARK                            x       y       z     vdW  Elec       q    Type
REMARK                         _______ _______ _______ _____ _____    ______ ____
ROOT
ATOM      1  O   UNL     1       7.117  -0.235   0.000  0.00  0.00    +0.000 OA
ATOM      2  O   UNL     1       4.236  -0.206   0.000  0.00  0.00    +0.000 OA
ATOM      3  O   UNL     1       5.665   2.269   0.000  0.00  0.00    +0.000 OA
ATOM      4  O   UNL     1       7.108   2.297   0.000  0.00  0.00    +0.000 OA
ATOM      5  C   UNL     1       5.665  -0.206   0.000  0.00  0.00    +0.000 A 
ATOM      6  C   UNL     1       4.951   1.031   0.000  0.00  0.00    +0.000 A 
ATOM      7  C   UNL     1       4.951   0.206   0.000  0.00  0.00    +0.000 A 
ATOM      8  C   UNL     1       6.380   0.206   0.000  0.00  0.00    +0.000 A 
ATOM      9  C   UNL     1       5.665   1.444   0.000  0.00  0.00    +0.000 A 
ATOM     10  C   UNL     1       6.380   1.031   0.000  0.00  0.00    +0.000 A 
ATOM     11  C   UNL     1       7.117   1.472   0.000  0.00  0.00    +0.000 A 
ATOM     12  C   UNL     1       7.865   0.189   0.000  0.00  0.00    +0.000 A 
ATOM     13  C   UNL     1       7.865   1.048   0.000  0.00  0.00    +0.000 A 
ENDROOT
BRANCH   5  18
ATOM     14  O   UNL     1       6.380  -1.444   0.000  0.00  0.00    +0.000 OA
ATOM     15  O   UNL     1       4.236  -1.031   0.000  0.00  0.00    +0.000 OA
ATOM     16  O   UNL     1       4.236  -2.681   0.000  0.00  0.00    +0.000 OA
ATOM     17  O   UNL     1       5.665  -3.506   0.000  0.00  0.00    +0.000 OA
ATOM     18  C   UNL     1       5.665  -1.031   0.000  0.00  0.00    +0.000 C 
ATOM     19  C   UNL     1       4.951  -1.444   0.000  0.00  0.00    +0.000 C 
ATOM     20  C   UNL     1       4.951  -2.269   0.000  0.00  0.00    +0.000 C 
ATOM     21  C   UNL     1       5.665  -2.681   0.000  0.00  0.00    +0.000 C 
ATOM     22  C   UNL     1       6.380  -2.269   0.000  0.00  0.00    +0.000 C 
ENDBRANCH   5  18
BRANCH   6  27
ATOM     23  O   UNL     1       3.522   1.031   0.000  0.00  0.00    +0.000 OA
ATOM     24  O   UNL     1       4.951   2.681   0.000  0.00  0.00    +0.000 OA
ATOM     25  O   UNL     1       3.522   3.506   0.000  0.00  0.00    +0.000 OA
ATOM     26  O   UNL     1       2.093   2.681   0.000  0.00  0.00    +0.000 OA
ATOM     27  C   UNL     1       4.236   1.444   0.000  0.00  0.00    +0.000 C 
ATOM     28  C   UNL     1       4.236   2.269   0.000  0.00  0.00    +0.000 C 
ATOM     29  C   UNL     1       3.522   2.681   0.000  0.00  0.00    +0.000 C 
ATOM     30  C   UNL     1       2.808   2.269   0.000  0.00  0.00    +0.000 C 
ATOM     31  C   UNL     1       2.808   1.444   0.000  0.00  0.00    +0.000 C 
ENDBRANCH   6  27
BRANCH  12  34
ATOM     32  O   UNL     1       9.284  -2.291   0.000  0.00  0.00    +0.000 OA
ATOM     33  O   UNL     1      10.716  -1.472   0.000  0.00  0.00    +0.000 OA
ATOM     34  C   UNL     1       8.578  -0.226   0.000  0.00  0.00    +0.000 A 
ATOM     35  C   UNL     1       8.575  -1.051   0.000  0.00  0.00    +0.000 A 
ATOM     36  C   UNL     1       9.294   0.184   0.000  0.00  0.00    +0.000 A 
ATOM     37  C   UNL     1       9.287  -1.466   0.000  0.00  0.00    +0.000 A 
ATOM     38  C   UNL     1      10.007  -0.232   0.000  0.00  0.00    +0.000 A 
ATOM     39  C   UNL     1      10.004  -1.057   0.000  0.00  0.00    +0.000 A 
ENDBRANCH  12  34
TORSDOF 3
