REMARK  Name = 44259272
REMARK  3 active torsions:
REMARK  status: ('A' for Active; 'I' for Inactive)
REMARK    1  A    between atoms: O_2  and  C_16
REMARK    2  A    between atoms: O_2  and  C_18
REMARK    3  A    between atoms: C_21  and  C_24
REMARK                            x       y       z     vdW  Elec       q    Type
REMARK                         _______ _______ _______ _____ _____    ______ ____
ROOT
ATOM      1  O   UNL     1       7.150  -2.286   0.000  0.00  0.00    +0.000 OA
ATOM      2  C   UNL     1       7.864  -1.048   0.000  0.00  0.00    +0.000 A 
ATOM      3  C   UNL     1       7.150  -1.461   0.000  0.00  0.00    +0.000 A 
ATOM      4  C   UNL     1       7.864  -0.223   0.000  0.00  0.00    +0.000 A 
ATOM      5  C   UNL     1       6.435  -0.223   0.000  0.00  0.00    +0.000 A 
ATOM      6  C   UNL     1       6.435  -1.048   0.000  0.00  0.00    +0.000 A 
ATOM      7  C   UNL     1       7.150   0.189   0.000  0.00  0.00    +0.000 A 
ENDROOT
BRANCH   5  13
ATOM      8  O   UNL     1       5.006  -0.223   0.000  0.00  0.00    +0.000 OA
ATOM      9  O   UNL     1       6.435   1.427   0.000  0.00  0.00    +0.000 OA
ATOM     10  O   UNL     1       5.006   2.252   0.000  0.00  0.00    +0.000 OA
ATOM     11  O   UNL     1       3.564   2.280   0.000  0.00  0.00    +0.000 OA
ATOM     12  O   UNL     1       2.094  -0.243   0.000  0.00  0.00    +0.000 OA
ATOM     13  C   UNL     1       5.721   0.189   0.000  0.00  0.00    +0.000 A 
ATOM     14  C   UNL     1       4.292   1.014   0.000  0.00  0.00    +0.000 A 
ATOM     15  C   UNL     1       4.292   0.189   0.000  0.00  0.00    +0.000 A 
ATOM     16  C   UNL     1       5.721   1.014   0.000  0.00  0.00    +0.000 A 
ATOM     17  C   UNL     1       5.006   1.427   0.000  0.00  0.00    +0.000 A 
ATOM     18  C   UNL     1       3.554   1.456   0.000  0.00  0.00    +0.000 A 
ATOM     19  C   UNL     1       3.554  -0.252   0.000  0.00  0.00    +0.000 A 
ATOM     20  C   UNL     1       2.807   0.172   0.000  0.00  0.00    +0.000 A 
ATOM     21  C   UNL     1       2.807   1.032   0.000  0.00  0.00    +0.000 A 
ENDBRANCH   5  13
BRANCH   2  22
ATOM     22  O   UNL     1       8.579  -1.461   0.000  0.00  0.00    +0.000 OA
BRANCH  22  31
ATOM     23  O   UNL     1       9.293  -0.223   0.000  0.00  0.00    +0.000 OA
ATOM     24  O   UNL     1      11.437  -1.461   0.000  0.00  0.00    +0.000 OA
ATOM     25  O   UNL     1      10.008  -2.286   0.000  0.00  0.00    +0.000 OA
ATOM     26  O   UNL     1      11.437   0.189   0.000  0.00  0.00    +0.000 OA
ATOM     27  O   UNL     1      10.008   1.014   0.000  0.00  0.00    +0.000 OA
ATOM     28  C   UNL     1      10.722  -1.048   0.000  0.00  0.00    +0.000 C 
ATOM     29  C   UNL     1      10.008  -1.461   0.000  0.00  0.00    +0.000 C 
ATOM     30  C   UNL     1      10.722  -0.223   0.000  0.00  0.00    +0.000 C 
ATOM     31  C   UNL     1       9.293  -1.048   0.000  0.00  0.00    +0.000 C 
ATOM     32  C   UNL     1      10.008   0.189   0.000  0.00  0.00    +0.000 C 
ENDBRANCH  22  31
ENDBRANCH   2  22
TORSDOF 3
