REMARK  Name = 44259307
REMARK  10 active torsions:
REMARK  status: ('A' for Active; 'I' for Inactive)
REMARK    1  A    between atoms: O_3  and  C_24
REMARK    2  A    between atoms: O_3  and  C_28
REMARK    3  A    between atoms: O_4  and  C_20
REMARK    4  A    between atoms: O_4  and  C_32
REMARK    5  A    between atoms: O_5  and  C_22
REMARK    6  A    between atoms: O_5  and  C_33
REMARK    7  A    between atoms: O_9  and  C_29
REMARK    8  A    between atoms: O_9  and  C_31
REMARK    9  A    between atoms: C_19  and  C_28
REMARK   10  A    between atoms: C_34  and  C_39
REMARK                            x       y       z     vdW  Elec       q    Type
REMARK                         _______ _______ _______ _____ _____    ______ ____
ROOT
ATOM      1  O   UNL     1       6.651   0.285   0.000  0.00  0.00    +0.000 OA
ATOM      2  O   UNL     1       7.366  -1.778   0.000  0.00  0.00    +0.000 OA
ATOM      3  O   UNL     1       8.795  -0.953   0.000  0.00  0.00    +0.000 OA
ATOM      4  O   UNL     1       8.795   0.697   0.000  0.00  0.00    +0.000 OA
ATOM      5  C   UNL     1       6.651  -0.540   0.000  0.00  0.00    +0.000 C 
ATOM      6  C   UNL     1       7.366  -0.953   0.000  0.00  0.00    +0.000 C 
ATOM      7  C   UNL     1       8.080  -0.540   0.000  0.00  0.00    +0.000 C 
ATOM      8  C   UNL     1       8.080   0.285   0.000  0.00  0.00    +0.000 C 
ATOM      9  C   UNL     1       7.366   0.697   0.000  0.00  0.00    +0.000 C 
ENDROOT
BRANCH   9  10
ATOM     10  O   UNL     1       7.366   1.522   0.000  0.00  0.00    +0.000 OA
BRANCH  10  15
ATOM     11  O   UNL     1       5.937   3.172   0.000  0.00  0.00    +0.000 OA
ATOM     12  O   UNL     1       5.937   0.697   0.000  0.00  0.00    +0.000 OA
ATOM     13  O   UNL     1       4.494   0.669   0.000  0.00  0.00    +0.000 OA
ATOM     14  O   UNL     1       3.024   3.192   0.000  0.00  0.00    +0.000 OA
ATOM     15  C   UNL     1       6.651   1.935   0.000  0.00  0.00    +0.000 A 
ATOM     16  C   UNL     1       6.651   2.760   0.000  0.00  0.00    +0.000 A 
ATOM     17  C   UNL     1       5.937   1.522   0.000  0.00  0.00    +0.000 A 
ATOM     18  C   UNL     1       5.222   1.935   0.000  0.00  0.00    +0.000 A 
ATOM     19  C   UNL     1       5.222   2.760   0.000  0.00  0.00    +0.000 A 
ATOM     20  C   UNL     1       4.485   1.494   0.000  0.00  0.00    +0.000 A 
ATOM     21  C   UNL     1       4.485   3.201   0.000  0.00  0.00    +0.000 A 
ATOM     22  C   UNL     1       3.737   1.917   0.000  0.00  0.00    +0.000 A 
ATOM     23  C   UNL     1       3.737   2.777   0.000  0.00  0.00    +0.000 A 
BRANCH  16  26
ATOM     24  O   UNL     1       8.080   5.235   0.000  0.00  0.00    +0.000 OA
ATOM     25  O   UNL     1       9.509   4.410   0.000  0.00  0.00    +0.000 OA
ATOM     26  C   UNL     1       7.366   3.172   0.000  0.00  0.00    +0.000 A 
ATOM     27  C   UNL     1       7.366   3.997   0.000  0.00  0.00    +0.000 A 
ATOM     28  C   UNL     1       8.080   2.760   0.000  0.00  0.00    +0.000 A 
ATOM     29  C   UNL     1       8.080   4.410   0.000  0.00  0.00    +0.000 A 
ATOM     30  C   UNL     1       8.795   3.172   0.000  0.00  0.00    +0.000 A 
ATOM     31  C   UNL     1       8.795   3.997   0.000  0.00  0.00    +0.000 A 
ENDBRANCH  16  26
ENDBRANCH  10  15
ENDBRANCH   9  10
BRANCH   5  32
ATOM     32  C   UNL     1       5.937  -0.953   0.000  0.00  0.00    +0.000 C 
BRANCH  32  33
ATOM     33  O   UNL     1       5.937  -1.778   0.000  0.00  0.00    +0.000 OA
BRANCH  33  39
ATOM     34  O   UNL     1       4.508  -1.778   0.000  0.00  0.00    +0.000 OA
ATOM     35  O   UNL     1       5.937  -3.428   0.000  0.00  0.00    +0.000 OA
ATOM     36  C   UNL     1       4.508  -3.428   0.000  0.00  0.00    +0.000 C 
ATOM     37  C   UNL     1       5.222  -3.015   0.000  0.00  0.00    +0.000 C 
ATOM     38  C   UNL     1       3.793  -3.015   0.000  0.00  0.00    +0.000 C 
ATOM     39  C   UNL     1       5.222  -2.190   0.000  0.00  0.00    +0.000 C 
ATOM     40  C   UNL     1       3.793  -2.190   0.000  0.00  0.00    +0.000 C 
ATOM     41  C   UNL     1       3.079  -1.778   0.000  0.00  0.00    +0.000 C 
BRANCH  36  42
ATOM     42  O   UNL     1       4.508  -4.253   0.000  0.00  0.00    +0.000 OA
BRANCH  42  44
ATOM     43  O   UNL     1       3.079  -4.253   0.000  0.00  0.00    +0.000 OA
ATOM     44  C   UNL     1       3.793  -4.665   0.000  0.00  0.00    +0.000 C 
ATOM     45  C   UNL     1       3.793  -5.490   0.000  0.00  0.00    +0.000 C 
ENDBRANCH  42  44
ENDBRANCH  36  42
BRANCH  38  46
ATOM     46  O   UNL     1       3.079  -3.428   0.000  0.00  0.00    +0.000 OA
BRANCH  46  48
ATOM     47  O   UNL     1       2.364  -2.190   0.000  0.00  0.00    +0.000 OA
ATOM     48  C   UNL     1       2.364  -3.015   0.000  0.00  0.00    +0.000 C 
ATOM     49  C   UNL     1       1.650  -3.428   0.000  0.00  0.00    +0.000 C 
ENDBRANCH  46  48
ENDBRANCH  38  46
ENDBRANCH  33  39
ENDBRANCH  32  33
ENDBRANCH   5  32
TORSDOF 10
