REMARK  Name = 44257032
REMARK  5 active torsions:
REMARK  status: ('A' for Active; 'I' for Inactive)
REMARK    1  A    between atoms: O_2  and  C_18
REMARK    2  A    between atoms: O_2  and  C_20
REMARK    3  A    between atoms: C_17  and  C_19
REMARK    4  A    between atoms: C_22  and  C_27
REMARK    5  A    between atoms: C_29  and  C_36
REMARK                            x       y       z     vdW  Elec       q    Type
REMARK                         _______ _______ _______ _____ _____    ______ ____
ROOT
ATOM      1  O   UNL     1       7.042   0.580   0.000  0.00  0.00    +0.000 OA
ATOM      2  O   UNL     1       4.337   1.546   0.000  0.00  0.00    +0.000 OA
ATOM      3  O   UNL     1       6.556   3.451   0.000  0.00  0.00    +0.000 OA
ATOM      4  C   UNL     1       5.947  -0.339   0.000  0.00  0.00    +0.000 A 
ATOM      5  C   UNL     1       5.417   0.293   0.000  0.00  0.00    +0.000 A 
ATOM      6  C   UNL     1       6.760  -0.195   0.000  0.00  0.00    +0.000 A 
ATOM      7  C   UNL     1       5.699   1.069   0.000  0.00  0.00    +0.000 A 
ATOM      8  C   UNL     1       6.512   1.212   0.000  0.00  0.00    +0.000 A 
ATOM      9  C   UNL     1       5.137   1.718   0.000  0.00  0.00    +0.000 A 
ATOM     10  C   UNL     1       4.612   0.150   0.000  0.00  0.00    +0.000 A 
ATOM     11  C   UNL     1       6.818   2.015   0.000  0.00  0.00    +0.000 A 
ATOM     12  C   UNL     1       4.077   0.770   0.000  0.00  0.00    +0.000 A 
ATOM     13  C   UNL     1       5.425   2.528   0.000  0.00  0.00    +0.000 A 
ATOM     14  C   UNL     1       6.271   2.677   0.000  0.00  0.00    +0.000 A 
ENDROOT
BRANCH   6  17
ATOM     15  O   UNL     1       7.256  -3.010   0.000  0.00  0.00    +0.000 OA
ATOM     16  O   UNL     1       8.881  -2.723   0.000  0.00  0.00    +0.000 OA
ATOM     17  C   UNL     1       7.290  -0.827   0.000  0.00  0.00    +0.000 A 
ATOM     18  C   UNL     1       7.008  -1.603   0.000  0.00  0.00    +0.000 A 
ATOM     19  C   UNL     1       8.103  -0.684   0.000  0.00  0.00    +0.000 A 
ATOM     20  C   UNL     1       7.538  -2.235   0.000  0.00  0.00    +0.000 A 
ATOM     21  C   UNL     1       8.633  -1.316   0.000  0.00  0.00    +0.000 A 
ATOM     22  C   UNL     1       8.351  -2.091   0.000  0.00  0.00    +0.000 A 
ENDBRANCH   6  17
BRANCH  12  25
ATOM     23  O   UNL     1       2.725   1.232   0.000  0.00  0.00    +0.000 OA
ATOM     24  O   UNL     1       3.001  -0.170   0.000  0.00  0.00    +0.000 OA
ATOM     25  C   UNL     1       3.268   0.611   0.000  0.00  0.00    +0.000 C 
ENDBRANCH  12  25
BRANCH   4  26
ATOM     26  O   UNL     1       5.665  -1.114   0.000  0.00  0.00    +0.000 OA
BRANCH  26  35
ATOM     27  O   UNL     1       4.236  -1.114   0.000  0.00  0.00    +0.000 OA
ATOM     28  O   UNL     1       4.236  -3.589   0.000  0.00  0.00    +0.000 OA
ATOM     29  O   UNL     1       2.808  -2.764   0.000  0.00  0.00    +0.000 OA
ATOM     30  O   UNL     1       5.665  -2.764   0.000  0.00  0.00    +0.000 OA
ATOM     31  C   UNL     1       4.236  -2.764   0.000  0.00  0.00    +0.000 C 
ATOM     32  C   UNL     1       3.522  -2.351   0.000  0.00  0.00    +0.000 C 
ATOM     33  C   UNL     1       4.951  -2.351   0.000  0.00  0.00    +0.000 C 
ATOM     34  C   UNL     1       3.522  -1.526   0.000  0.00  0.00    +0.000 C 
ATOM     35  C   UNL     1       4.951  -1.526   0.000  0.00  0.00    +0.000 C 
BRANCH  34  37
ATOM     36  O   UNL     1       2.093  -1.526   0.000  0.00  0.00    +0.000 OA
ATOM     37  C   UNL     1       2.808  -1.114   0.000  0.00  0.00    +0.000 C 
ENDBRANCH  34  37
ENDBRANCH  26  35
ENDBRANCH   4  26
TORSDOF 5
