REMARK  Name = 44259448
REMARK  7 active torsions:
REMARK  status: ('A' for Active; 'I' for Inactive)
REMARK    1  A    between atoms: O_3  and  C_27
REMARK    2  A    between atoms: O_3  and  C_33
REMARK    3  A    between atoms: O_4  and  C_29
REMARK    4  A    between atoms: O_4  and  C_34
REMARK    5  A    between atoms: C_28  and  C_31
REMARK    6  A    between atoms: C_30  and  C_32
REMARK    7  A    between atoms: C_36  and  C_42
REMARK                            x       y       z     vdW  Elec       q    Type
REMARK                         _______ _______ _______ _____ _____    ______ ____
ROOT
ATOM      1  O   UNL     1       7.104  -0.237   0.000  0.00  0.00    +0.000 OA
ATOM      2  O   UNL     1       4.960  -1.474   0.000  0.00  0.00    +0.000 OA
ATOM      3  O   UNL     1       4.214  -0.239   0.000  0.00  0.00    +0.000 OA
ATOM      4  C   UNL     1       6.389  -1.474   0.000  0.00  0.00    +0.000 A 
ATOM      5  C   UNL     1       5.662   1.470   0.000  0.00  0.00    +0.000 A 
ATOM      6  C   UNL     1       5.675  -0.237   0.000  0.00  0.00    +0.000 A 
ATOM      7  C   UNL     1       7.104  -1.062   0.000  0.00  0.00    +0.000 A 
ATOM      8  C   UNL     1       5.675  -1.062   0.000  0.00  0.00    +0.000 A 
ATOM      9  C   UNL     1       6.389   0.176   0.000  0.00  0.00    +0.000 A 
ATOM     10  C   UNL     1       6.402   1.035   0.000  0.00  0.00    +0.000 A 
ATOM     11  C   UNL     1       4.917   1.041   0.000  0.00  0.00    +0.000 A 
ATOM     12  C   UNL     1       4.924   0.181   0.000  0.00  0.00    +0.000 A 
ENDROOT
BRANCH   7  16
ATOM     13  O   UNL     1       8.533  -3.537   0.000  0.00  0.00    +0.000 OA
ATOM     14  O   UNL     1       9.961  -1.062   0.000  0.00  0.00    +0.000 OA
ATOM     15  O   UNL     1       9.961  -2.712   0.000  0.00  0.00    +0.000 OA
ATOM     16  C   UNL     1       7.818  -1.474   0.000  0.00  0.00    +0.000 A 
ATOM     17  C   UNL     1       8.533  -1.062   0.000  0.00  0.00    +0.000 A 
ATOM     18  C   UNL     1       7.818  -2.299   0.000  0.00  0.00    +0.000 A 
ATOM     19  C   UNL     1       8.533  -2.712   0.000  0.00  0.00    +0.000 A 
ATOM     20  C   UNL     1       9.247  -1.474   0.000  0.00  0.00    +0.000 A 
ATOM     21  C   UNL     1       9.247  -2.299   0.000  0.00  0.00    +0.000 A 
ENDBRANCH   7  16
BRANCH   4  22
ATOM     22  O   UNL     1       6.389  -2.299   0.000  0.00  0.00    +0.000 OA
BRANCH  22  30
ATOM     23  O   UNL     1       4.960  -2.299   0.000  0.00  0.00    +0.000 OA
ATOM     24  O   UNL     1       4.960  -4.774   0.000  0.00  0.00    +0.000 OA
ATOM     25  O   UNL     1       6.389  -3.949   0.000  0.00  0.00    +0.000 OA
ATOM     26  O   UNL     1       3.531  -3.949   0.000  0.00  0.00    +0.000 OA
ATOM     27  C   UNL     1       4.960  -3.949   0.000  0.00  0.00    +0.000 C 
ATOM     28  C   UNL     1       5.675  -3.537   0.000  0.00  0.00    +0.000 C 
ATOM     29  C   UNL     1       4.246  -3.537   0.000  0.00  0.00    +0.000 C 
ATOM     30  C   UNL     1       5.675  -2.712   0.000  0.00  0.00    +0.000 C 
ATOM     31  C   UNL     1       4.246  -2.712   0.000  0.00  0.00    +0.000 C 
BRANCH  31  34
ATOM     32  O   UNL     1       2.817  -2.712   0.000  0.00  0.00    +0.000 OA
ATOM     33  O   UNL     1       3.531  -1.474   0.000  0.00  0.00    +0.000 OA
ATOM     34  C   UNL     1       3.531  -2.299   0.000  0.00  0.00    +0.000 C 
ENDBRANCH  31  34
ENDBRANCH  22  30
ENDBRANCH   4  22
BRANCH   5  35
ATOM     35  O   UNL     1       5.665   2.295   0.000  0.00  0.00    +0.000 OA
BRANCH  35  43
ATOM     36  O   UNL     1       4.236   2.301   0.000  0.00  0.00    +0.000 OA
ATOM     37  O   UNL     1       4.245   4.776   0.000  0.00  0.00    +0.000 OA
ATOM     38  O   UNL     1       5.671   3.945   0.000  0.00  0.00    +0.000 OA
ATOM     39  O   UNL     1       2.813   3.957   0.000  0.00  0.00    +0.000 OA
ATOM     40  C   UNL     1       4.242   3.951   0.000  0.00  0.00    +0.000 C 
ATOM     41  C   UNL     1       4.955   3.536   0.000  0.00  0.00    +0.000 C 
ATOM     42  C   UNL     1       3.526   3.541   0.000  0.00  0.00    +0.000 C 
ATOM     43  C   UNL     1       4.952   2.711   0.000  0.00  0.00    +0.000 C 
ATOM     44  C   UNL     1       3.523   2.716   0.000  0.00  0.00    +0.000 C 
BRANCH  44  47
ATOM     45  O   UNL     1       2.094   2.722   0.000  0.00  0.00    +0.000 OA
ATOM     46  O   UNL     1       2.804   1.482   0.000  0.00  0.00    +0.000 OA
ATOM     47  C   UNL     1       2.807   2.307   0.000  0.00  0.00    +0.000 C 
ENDBRANCH  44  47
ENDBRANCH  35  43
ENDBRANCH   5  35
TORSDOF 7
