REMARK  Name = 44259842
REMARK  10 active torsions:
REMARK  status: ('A' for Active; 'I' for Inactive)
REMARK    1  A    between atoms: O_3  and  C_19
REMARK    2  A    between atoms: O_3  and  C_33
REMARK    3  A    between atoms: O_4  and  C_20
REMARK    4  A    between atoms: O_4  and  C_34
REMARK    5  A    between atoms: O_5  and  C_23
REMARK    6  A    between atoms: O_5  and  C_31
REMARK    7  A    between atoms: O_7  and  C_28
REMARK    8  A    between atoms: O_7  and  C_32
REMARK    9  A    between atoms: O_12  and  C_38
REMARK   10  A    between atoms: C_40  and  C_44
REMARK                            x       y       z     vdW  Elec       q    Type
REMARK                         _______ _______ _______ _____ _____    ______ ____
ROOT
ATOM      1  O   UNL     1       7.386   0.718   0.000  0.00  0.00    +0.000 OA
ATOM      2  O   UNL     1       4.496   0.732   0.000  0.00  0.00    +0.000 OA
ATOM      3  O   UNL     1       5.247   1.964   0.000  0.00  0.00    +0.000 OA
ATOM      4  C   UNL     1       5.937  -0.984   0.000  0.00  0.00    +0.000 A 
ATOM      5  C   UNL     1       6.676   1.958   0.000  0.00  0.00    +0.000 A 
ATOM      6  C   UNL     1       5.957   0.723   0.000  0.00  0.00    +0.000 A 
ATOM      7  C   UNL     1       6.679  -0.551   0.000  0.00  0.00    +0.000 A 
ATOM      8  C   UNL     1       6.670   0.308   0.000  0.00  0.00    +0.000 A 
ATOM      9  C   UNL     1       5.194  -0.551   0.000  0.00  0.00    +0.000 A 
ATOM     10  C   UNL     1       5.960   1.548   0.000  0.00  0.00    +0.000 A 
ATOM     11  C   UNL     1       7.389   1.543   0.000  0.00  0.00    +0.000 A 
ATOM     12  C   UNL     1       5.204   0.308   0.000  0.00  0.00    +0.000 A 
ENDROOT
BRANCH  11  15
ATOM     13  O   UNL     1      10.246   1.532   0.000  0.00  0.00    +0.000 OA
ATOM     14  O   UNL     1      10.253   3.182   0.000  0.00  0.00    +0.000 OA
ATOM     15  C   UNL     1       8.105   1.953   0.000  0.00  0.00    +0.000 A 
ATOM     16  C   UNL     1       8.818   1.538   0.000  0.00  0.00    +0.000 A 
ATOM     17  C   UNL     1       8.108   2.778   0.000  0.00  0.00    +0.000 A 
ATOM     18  C   UNL     1       9.534   1.947   0.000  0.00  0.00    +0.000 A 
ATOM     19  C   UNL     1       8.824   3.187   0.000  0.00  0.00    +0.000 A 
ATOM     20  C   UNL     1       9.537   2.772   0.000  0.00  0.00    +0.000 A 
ENDBRANCH  11  15
BRANCH   9  21
ATOM     21  O   UNL     1       4.477  -0.958   0.000  0.00  0.00    +0.000 OA
ATOM     22  C   UNL     1       3.765  -0.540   0.000  0.00  0.00    +0.000 C 
ENDBRANCH   9  21
BRANCH   4  23
ATOM     23  O   UNL     1       5.937  -1.809   0.000  0.00  0.00    +0.000 OA
BRANCH  23  30
ATOM     24  O   UNL     1       4.508  -1.809   0.000  0.00  0.00    +0.000 OA
ATOM     25  O   UNL     1       5.937  -3.459   0.000  0.00  0.00    +0.000 OA
ATOM     26  C   UNL     1       4.508  -3.459   0.000  0.00  0.00    +0.000 C 
ATOM     27  C   UNL     1       3.793  -3.046   0.000  0.00  0.00    +0.000 C 
ATOM     28  C   UNL     1       5.222  -3.046   0.000  0.00  0.00    +0.000 C 
ATOM     29  C   UNL     1       3.793  -2.221   0.000  0.00  0.00    +0.000 C 
ATOM     30  C   UNL     1       5.222  -2.221   0.000  0.00  0.00    +0.000 C 
ATOM     31  C   UNL     1       3.079  -1.809   0.000  0.00  0.00    +0.000 C 
BRANCH  26  32
ATOM     32  O   UNL     1       4.508  -4.284   0.000  0.00  0.00    +0.000 OA
BRANCH  32  34
ATOM     33  O   UNL     1       3.079  -4.284   0.000  0.00  0.00    +0.000 OA
ATOM     34  C   UNL     1       3.793  -4.696   0.000  0.00  0.00    +0.000 C 
ATOM     35  C   UNL     1       3.793  -5.521   0.000  0.00  0.00    +0.000 C 
ENDBRANCH  32  34
ENDBRANCH  26  32
BRANCH  27  36
ATOM     36  O   UNL     1       3.079  -3.459   0.000  0.00  0.00    +0.000 OA
BRANCH  36  38
ATOM     37  O   UNL     1       2.364  -2.221   0.000  0.00  0.00    +0.000 OA
ATOM     38  C   UNL     1       2.364  -3.046   0.000  0.00  0.00    +0.000 C 
ATOM     39  C   UNL     1       1.650  -3.459   0.000  0.00  0.00    +0.000 C 
ENDBRANCH  36  38
ENDBRANCH  27  36
ENDBRANCH  23  30
ENDBRANCH   4  23
BRANCH   5  40
ATOM     40  O   UNL     1       6.679   2.783   0.000  0.00  0.00    +0.000 OA
BRANCH  40  49
ATOM     41  O   UNL     1       5.250   2.789   0.000  0.00  0.00    +0.000 OA
ATOM     42  O   UNL     1       5.260   5.264   0.000  0.00  0.00    +0.000 OA
ATOM     43  O   UNL     1       3.828   4.444   0.000  0.00  0.00    +0.000 OA
ATOM     44  O   UNL     1       6.685   4.433   0.000  0.00  0.00    +0.000 OA
ATOM     45  C   UNL     1       5.256   4.439   0.000  0.00  0.00    +0.000 C 
ATOM     46  C   UNL     1       4.540   4.029   0.000  0.00  0.00    +0.000 C 
ATOM     47  C   UNL     1       5.969   4.023   0.000  0.00  0.00    +0.000 C 
ATOM     48  C   UNL     1       4.537   3.204   0.000  0.00  0.00    +0.000 C 
ATOM     49  C   UNL     1       5.966   3.198   0.000  0.00  0.00    +0.000 C 
ATOM     50  C   UNL     1       3.821   2.794   0.000  0.00  0.00    +0.000 C 
ENDBRANCH  40  49
ENDBRANCH   5  40
TORSDOF 10
