REMARK  Name = 11795367
REMARK  5 active torsions:
REMARK  status: ('A' for Active; 'I' for Inactive)
REMARK    1  A    between atoms: O_3  and  C_14
REMARK    2  A    between atoms: O_4  and  C_15
REMARK    3  A    between atoms: O_6  and  C_17
REMARK    4  A    between atoms: O_7  and  C_18
REMARK    5  A    between atoms: C_12  and  C_13
REMARK                            x       y       z     vdW  Elec       q    Type
REMARK                         _______ _______ _______ _____ _____    ______ ____
ROOT
ATOM      1  O   UNL     1       5.245  -0.842   0.000  0.00  0.00    +0.000 OA
ATOM      2  O   UNL     1       2.364  -0.814   0.000  0.00  0.00    +0.000 OA
ATOM      3  O   UNL     1       5.236   1.690   0.000  0.00  0.00    +0.000 OA
ATOM      4  C   UNL     1       4.508   0.424   0.000  0.00  0.00    +0.000 A 
ATOM      5  C   UNL     1       4.508  -0.401   0.000  0.00  0.00    +0.000 A 
ATOM      6  C   UNL     1       5.993  -0.418   0.000  0.00  0.00    +0.000 A 
ATOM      7  C   UNL     1       5.993   0.441   0.000  0.00  0.00    +0.000 A 
ATOM      8  C   UNL     1       3.793   0.836   0.000  0.00  0.00    +0.000 A 
ATOM      9  C   UNL     1       5.245   0.865   0.000  0.00  0.00    +0.000 A 
ATOM     10  C   UNL     1       3.793  -0.814   0.000  0.00  0.00    +0.000 A 
ATOM     11  C   UNL     1       3.079   0.424   0.000  0.00  0.00    +0.000 A 
ATOM     12  C   UNL     1       3.079  -0.401   0.000  0.00  0.00    +0.000 A 
ENDROOT
BRANCH   6  15
ATOM     13  O   UNL     1       8.916  -0.591   0.000  0.00  0.00    +0.000 OA
ATOM     14  O   UNL     1       8.911  -1.919   0.000  0.00  0.00    +0.000 OA
ATOM     15  C   UNL     1       6.706  -0.834   0.000  0.00  0.00    +0.000 A 
ATOM     16  C   UNL     1       7.422  -0.424   0.000  0.00  0.00    +0.000 A 
ATOM     17  C   UNL     1       8.135  -0.839   0.000  0.00  0.00    +0.000 A 
ATOM     18  C   UNL     1       6.703  -1.659   0.000  0.00  0.00    +0.000 A 
ATOM     19  C   UNL     1       8.132  -1.664   0.000  0.00  0.00    +0.000 A 
ATOM     20  C   UNL     1       7.415  -2.074   0.000  0.00  0.00    +0.000 A 
ATOM     21  C   UNL     1       9.395  -1.256   0.000  0.00  0.00    +0.000 C 
ENDBRANCH   6  15
BRANCH   7  22
ATOM     22  O   UNL     1       6.706   0.856   0.000  0.00  0.00    +0.000 OA
ATOM     23  C   UNL     1       6.703   1.681   0.000  0.00  0.00    +0.000 C 
ENDBRANCH   7  22
BRANCH   8  24
ATOM     24  O   UNL     1       3.793   1.661   0.000  0.00  0.00    +0.000 OA
ATOM     25  C   UNL     1       3.079   2.074   0.000  0.00  0.00    +0.000 C 
ENDBRANCH   8  24
BRANCH  10  26
ATOM     26  O   UNL     1       3.793  -1.639   0.000  0.00  0.00    +0.000 OA
ATOM     27  C   UNL     1       3.079  -2.051   0.000  0.00  0.00    +0.000 C 
ENDBRANCH  10  26
BRANCH  11  28
ATOM     28  O   UNL     1       2.364   0.836   0.000  0.00  0.00    +0.000 OA
ATOM     29  C   UNL     1       1.650   0.424   0.000  0.00  0.00    +0.000 C 
ENDBRANCH  11  28
TORSDOF 5
