REMARK  Name = 44259026
REMARK  10 active torsions:
REMARK  status: ('A' for Active; 'I' for Inactive)
REMARK    1  A    between atoms: O_3  and  C_21
REMARK    2  A    between atoms: O_3  and  C_28
REMARK    3  A    between atoms: O_4  and  C_18
REMARK    4  A    between atoms: O_4  and  C_34
REMARK    5  A    between atoms: O_6  and  C_25
REMARK    6  A    between atoms: O_6  and  C_29
REMARK    7  A    between atoms: C_19  and  C_26
REMARK    8  A    between atoms: C_32  and  C_38
REMARK    9  A    between atoms: C_34  and  C_39
REMARK   10  A    between atoms: C_42  and  C_46
REMARK                            x       y       z     vdW  Elec       q    Type
REMARK                         _______ _______ _______ _____ _____    ______ ____
ROOT
ATOM      1  O   UNL     1       6.897  -1.000   0.000  0.00  0.00    +0.000 OA
ATOM      2  O   UNL     1       4.758   0.246   0.000  0.00  0.00    +0.000 OA
ATOM      3  O   UNL     1       4.007  -0.986   0.000  0.00  0.00    +0.000 OA
ATOM      4  C   UNL     1       6.187   0.240   0.000  0.00  0.00    +0.000 A 
ATOM      5  C   UNL     1       5.448  -2.701   0.000  0.00  0.00    +0.000 A 
ATOM      6  C   UNL     1       5.468  -0.994   0.000  0.00  0.00    +0.000 A 
ATOM      7  C   UNL     1       5.471  -0.169   0.000  0.00  0.00    +0.000 A 
ATOM      8  C   UNL     1       6.900  -0.175   0.000  0.00  0.00    +0.000 A 
ATOM      9  C   UNL     1       6.181  -1.409   0.000  0.00  0.00    +0.000 A 
ATOM     10  C   UNL     1       6.191  -2.269   0.000  0.00  0.00    +0.000 A 
ATOM     11  C   UNL     1       4.705  -2.269   0.000  0.00  0.00    +0.000 A 
ATOM     12  C   UNL     1       4.715  -1.409   0.000  0.00  0.00    +0.000 A 
ENDROOT
BRANCH   8  14
ATOM     13  O   UNL     1       9.764   1.464   0.000  0.00  0.00    +0.000 OA
ATOM     14  C   UNL     1       7.616   0.235   0.000  0.00  0.00    +0.000 A 
ATOM     15  C   UNL     1       7.619   1.060   0.000  0.00  0.00    +0.000 A 
ATOM     16  C   UNL     1       8.329  -0.180   0.000  0.00  0.00    +0.000 A 
ATOM     17  C   UNL     1       8.335   1.470   0.000  0.00  0.00    +0.000 A 
ATOM     18  C   UNL     1       9.045   0.230   0.000  0.00  0.00    +0.000 A 
ATOM     19  C   UNL     1       9.048   1.054   0.000  0.00  0.00    +0.000 A 
ENDBRANCH   8  14
BRANCH   4  20
ATOM     20  O   UNL     1       6.190   1.065   0.000  0.00  0.00    +0.000 OA
BRANCH  20  26
ATOM     21  O   UNL     1       4.722   1.148   0.000  0.00  0.00    +0.000 OA
ATOM     22  O   UNL     1       4.255   3.231   0.000  0.00  0.00    +0.000 OA
ATOM     23  C   UNL     1       4.588   2.476   0.000  0.00  0.00    +0.000 C 
ATOM     24  C   UNL     1       5.394   2.302   0.000  0.00  0.00    +0.000 C 
ATOM     25  C   UNL     1       4.173   1.763   0.000  0.00  0.00    +0.000 C 
ATOM     26  C   UNL     1       5.477   1.481   0.000  0.00  0.00    +0.000 C 
BRANCH  25  28
ATOM     27  O   UNL     1       3.013   0.928   0.000  0.00  0.00    +0.000 OA
ATOM     28  C   UNL     1       3.352   1.680   0.000  0.00  0.00    +0.000 C 
ENDBRANCH  25  28
BRANCH  24  29
ATOM     29  O   UNL     1       6.009   2.851   0.000  0.00  0.00    +0.000 OA
BRANCH  29  31
ATOM     30  O   UNL     1       6.456   4.208   0.000  0.00  0.00    +0.000 OA
ATOM     31  C   UNL     1       5.841   3.659   0.000  0.00  0.00    +0.000 C 
BRANCH  31  32
ATOM     32  C   UNL     1       5.057   3.917   0.000  0.00  0.00    +0.000 C 
ATOM     33  C   UNL     1       4.889   4.724   0.000  0.00  0.00    +0.000 C 
BRANCH  33  35
ATOM     34  O   UNL     1       1.754   5.756   0.000  0.00  0.00    +0.000 OA
ATOM     35  C   UNL     1       4.105   4.982   0.000  0.00  0.00    +0.000 A 
ATOM     36  C   UNL     1       3.490   4.433   0.000  0.00  0.00    +0.000 A 
ATOM     37  C   UNL     1       3.937   5.790   0.000  0.00  0.00    +0.000 A 
ATOM     38  C   UNL     1       2.707   4.691   0.000  0.00  0.00    +0.000 A 
ATOM     39  C   UNL     1       3.153   6.048   0.000  0.00  0.00    +0.000 A 
ATOM     40  C   UNL     1       2.538   5.498   0.000  0.00  0.00    +0.000 A 
ENDBRANCH  33  35
ENDBRANCH  31  32
ENDBRANCH  29  31
ENDBRANCH  24  29
ENDBRANCH  20  26
ENDBRANCH   4  20
BRANCH   5  41
ATOM     41  O   UNL     1       5.448  -3.526   0.000  0.00  0.00    +0.000 OA
BRANCH  41  50
ATOM     42  O   UNL     1       4.019  -3.526   0.000  0.00  0.00    +0.000 OA
ATOM     43  O   UNL     1       4.019  -6.001   0.000  0.00  0.00    +0.000 OA
ATOM     44  O   UNL     1       2.590  -5.176   0.000  0.00  0.00    +0.000 OA
ATOM     45  O   UNL     1       5.448  -5.176   0.000  0.00  0.00    +0.000 OA
ATOM     46  C   UNL     1       4.019  -5.176   0.000  0.00  0.00    +0.000 C 
ATOM     47  C   UNL     1       3.305  -4.764   0.000  0.00  0.00    +0.000 C 
ATOM     48  C   UNL     1       4.734  -4.764   0.000  0.00  0.00    +0.000 C 
ATOM     49  C   UNL     1       3.305  -3.939   0.000  0.00  0.00    +0.000 C 
ATOM     50  C   UNL     1       4.734  -3.939   0.000  0.00  0.00    +0.000 C 
ATOM     51  C   UNL     1       2.590  -3.526   0.000  0.00  0.00    +0.000 C 
ENDBRANCH  41  50
ENDBRANCH   5  41
TORSDOF 10
