REMARK  Name = 44258691
REMARK  5 active torsions:
REMARK  status: ('A' for Active; 'I' for Inactive)
REMARK    1  A    between atoms: O_2  and  C_15
REMARK    2  A    between atoms: O_2  and  C_17
REMARK    3  A    between atoms: O_9  and  C_26
REMARK    4  A    between atoms: C_14  and  C_16
REMARK    5  A    between atoms: C_25  and  C_28
REMARK                            x       y       z     vdW  Elec       q    Type
REMARK                         _______ _______ _______ _____ _____    ______ ____
ROOT
ATOM      1  O   UNL     1       7.160  -0.771   0.000  0.00  0.00    +0.000 OA
ATOM      2  O   UNL     1       5.679   1.577   0.000  0.00  0.00    +0.000 OA
ATOM      3  O   UNL     1       3.490   0.303   0.000  0.00  0.00    +0.000 OA
ATOM      4  C   UNL     1       5.665  -0.932   0.000  0.00  0.00    +0.000 A 
ATOM      5  C   UNL     1       6.380  -0.519   0.000  0.00  0.00    +0.000 A 
ATOM      6  C   UNL     1       4.951  -0.519   0.000  0.00  0.00    +0.000 A 
ATOM      7  C   UNL     1       6.380   0.306   0.000  0.00  0.00    +0.000 A 
ATOM      8  C   UNL     1       4.951   0.306   0.000  0.00  0.00    +0.000 A 
ATOM      9  C   UNL     1       5.665   0.718   0.000  0.00  0.00    +0.000 A 
ATOM     10  C   UNL     1       7.160   0.557   0.000  0.00  0.00    +0.000 A 
ATOM     11  C   UNL     1       4.200   0.724   0.000  0.00  0.00    +0.000 A 
ATOM     12  C   UNL     1       4.938   2.013   0.000  0.00  0.00    +0.000 A 
ATOM     13  C   UNL     1       4.194   1.583   0.000  0.00  0.00    +0.000 A 
ATOM     14  C   UNL     1       7.642  -0.107   0.000  0.00  0.00    +0.000 A 
ENDROOT
BRANCH  12  15
ATOM     15  C   UNL     1       4.941   2.838   0.000  0.00  0.00    +0.000 A 
ATOM     16  C   UNL     1       4.228   3.253   0.000  0.00  0.00    +0.000 A 
ATOM     17  C   UNL     1       5.657   3.247   0.000  0.00  0.00    +0.000 A 
ATOM     18  C   UNL     1       4.231   4.078   0.000  0.00  0.00    +0.000 A 
ATOM     19  C   UNL     1       5.660   4.072   0.000  0.00  0.00    +0.000 A 
ATOM     20  C   UNL     1       4.947   4.488   0.000  0.00  0.00    +0.000 A 
ENDBRANCH  12  15
BRANCH  13  21
ATOM     21  O   UNL     1       3.478   1.993   0.000  0.00  0.00    +0.000 OA
ATOM     22  C   UNL     1       2.765   1.578   0.000  0.00  0.00    +0.000 C 
ENDBRANCH  13  21
BRANCH   4  23
ATOM     23  O   UNL     1       5.665  -1.757   0.000  0.00  0.00    +0.000 OA
BRANCH  23  32
ATOM     24  O   UNL     1       4.236  -1.757   0.000  0.00  0.00    +0.000 OA
ATOM     25  O   UNL     1       4.236  -4.232   0.000  0.00  0.00    +0.000 OA
ATOM     26  O   UNL     1       2.808  -3.407   0.000  0.00  0.00    +0.000 OA
ATOM     27  O   UNL     1       5.665  -3.407   0.000  0.00  0.00    +0.000 OA
ATOM     28  C   UNL     1       4.236  -3.407   0.000  0.00  0.00    +0.000 C 
ATOM     29  C   UNL     1       3.522  -2.994   0.000  0.00  0.00    +0.000 C 
ATOM     30  C   UNL     1       4.951  -2.994   0.000  0.00  0.00    +0.000 C 
ATOM     31  C   UNL     1       3.522  -2.169   0.000  0.00  0.00    +0.000 C 
ATOM     32  C   UNL     1       4.951  -2.169   0.000  0.00  0.00    +0.000 C 
BRANCH  31  34
ATOM     33  O   UNL     1       2.093  -2.169   0.000  0.00  0.00    +0.000 OA
ATOM     34  C   UNL     1       2.808  -1.757   0.000  0.00  0.00    +0.000 C 
ENDBRANCH  31  34
ENDBRANCH  23  32
ENDBRANCH   4  23
TORSDOF 5
