REMARK  Name = 131839035
REMARK  6 active torsions:
REMARK  status: ('A' for Active; 'I' for Inactive)
REMARK    1  A    between atoms: O_2  and  C_13
REMARK    2  A    between atoms: O_2  and  C_15
REMARK    3  A    between atoms: C_12  and  C_14
REMARK    4  A    between atoms: C_18  and  C_21
REMARK    5  A    between atoms: C_21  and  C_22
REMARK    6  A    between atoms: C_23  and  C_24
REMARK                            x       y       z     vdW  Elec       q    Type
REMARK                         _______ _______ _______ _____ _____    ______ ____
ROOT
ATOM      1  C   UNL     1       5.665  -0.903   0.000  0.00  0.00    +0.000 A 
ATOM      2  C   UNL     1       4.951  -0.491   0.000  0.00  0.00    +0.000 A 
ATOM      3  C   UNL     1       6.380  -0.491   0.000  0.00  0.00    +0.000 A 
ATOM      4  C   UNL     1       4.951   0.334   0.000  0.00  0.00    +0.000 A 
ATOM      5  C   UNL     1       6.380   0.334   0.000  0.00  0.00    +0.000 A 
ATOM      6  C   UNL     1       5.665   0.747   0.000  0.00  0.00    +0.000 A 
ENDROOT
BRANCH   4   8
ATOM      7  O   UNL     1       3.522   0.334   0.000  0.00  0.00    +0.000 OA
ATOM      8  C   UNL     1       4.237   0.747   0.000  0.00  0.00    +0.000 C 
BRANCH   8   9
ATOM      9  C   UNL     1       4.237   1.572   0.000  0.00  0.00    +0.000 C 
ATOM     10  C   UNL     1       3.522   1.984   0.000  0.00  0.00    +0.000 C 
BRANCH  10  11
ATOM     11  C   UNL     1       3.522   2.809   0.000  0.00  0.00    +0.000 A 
ATOM     12  C   UNL     1       2.808   3.222   0.000  0.00  0.00    +0.000 A 
ATOM     13  C   UNL     1       4.237   3.222   0.000  0.00  0.00    +0.000 A 
ATOM     14  C   UNL     1       2.808   4.047   0.000  0.00  0.00    +0.000 A 
ATOM     15  C   UNL     1       4.237   4.047   0.000  0.00  0.00    +0.000 A 
ATOM     16  C   UNL     1       3.522   4.459   0.000  0.00  0.00    +0.000 A 
ENDBRANCH  10  11
ENDBRANCH   8   9
ENDBRANCH   4   8
BRANCH   1  17
ATOM     17  O   UNL     1       5.665  -1.728   0.000  0.00  0.00    +0.000 OA
BRANCH  17  26
ATOM     18  O   UNL     1       4.237  -1.728   0.000  0.00  0.00    +0.000 OA
ATOM     19  O   UNL     1       4.237  -4.204   0.000  0.00  0.00    +0.000 OA
ATOM     20  O   UNL     1       2.808  -3.378   0.000  0.00  0.00    +0.000 OA
ATOM     21  O   UNL     1       5.665  -3.378   0.000  0.00  0.00    +0.000 OA
ATOM     22  C   UNL     1       4.237  -3.378   0.000  0.00  0.00    +0.000 C 
ATOM     23  C   UNL     1       3.522  -2.966   0.000  0.00  0.00    +0.000 C 
ATOM     24  C   UNL     1       4.951  -2.966   0.000  0.00  0.00    +0.000 C 
ATOM     25  C   UNL     1       3.522  -2.141   0.000  0.00  0.00    +0.000 C 
ATOM     26  C   UNL     1       4.951  -2.141   0.000  0.00  0.00    +0.000 C 
BRANCH  25  29
ATOM     27  O   UNL     1       2.093  -2.141   0.000  0.00  0.00    +0.000 OA
ATOM     28  O   UNL     1       2.808  -0.903   0.000  0.00  0.00    +0.000 OA
ATOM     29  C   UNL     1       2.808  -1.728   0.000  0.00  0.00    +0.000 C 
ENDBRANCH  25  29
ENDBRANCH  17  26
ENDBRANCH   1  17
TORSDOF 6
