REMARK  Name = 131836439
REMARK  7 active torsions:
REMARK  status: ('A' for Active; 'I' for Inactive)
REMARK    1  A    between atoms: O_2  and  C_17
REMARK    2  A    between atoms: O_2  and  C_19
REMARK    3  A    between atoms: C_16  and  C_18
REMARK    4  A    between atoms: C_22  and  C_23
REMARK    5  A    between atoms: C_23  and  C_26
REMARK    6  A    between atoms: C_26  and  C_27
REMARK    7  A    between atoms: C_27  and  C_28
REMARK                            x       y       z     vdW  Elec       q    Type
REMARK                         _______ _______ _______ _____ _____    ______ ____
ROOT
ATOM      1  C   UNL     1       5.665  -1.159   0.000  0.00  0.00    +0.000 A 
ATOM      2  C   UNL     1       4.951  -0.747   0.000  0.00  0.00    +0.000 A 
ATOM      3  C   UNL     1       6.380  -0.747   0.000  0.00  0.00    +0.000 A 
ATOM      4  C   UNL     1       5.665   0.491   0.000  0.00  0.00    +0.000 A 
ATOM      5  C   UNL     1       4.951   0.078   0.000  0.00  0.00    +0.000 A 
ATOM      6  C   UNL     1       6.380   0.078   0.000  0.00  0.00    +0.000 A 
ENDROOT
BRANCH   1   7
ATOM      7  O   UNL     1       5.665  -1.984   0.000  0.00  0.00    +0.000 OA
BRANCH   7  16
ATOM      8  O   UNL     1       4.236  -1.984   0.000  0.00  0.00    +0.000 OA
ATOM      9  O   UNL     1       4.236  -4.459   0.000  0.00  0.00    +0.000 OA
ATOM     10  O   UNL     1       2.808  -3.634   0.000  0.00  0.00    +0.000 OA
ATOM     11  O   UNL     1       5.665  -3.634   0.000  0.00  0.00    +0.000 OA
ATOM     12  C   UNL     1       4.236  -3.634   0.000  0.00  0.00    +0.000 C 
ATOM     13  C   UNL     1       3.522  -3.222   0.000  0.00  0.00    +0.000 C 
ATOM     14  C   UNL     1       4.951  -3.222   0.000  0.00  0.00    +0.000 C 
ATOM     15  C   UNL     1       3.522  -2.397   0.000  0.00  0.00    +0.000 C 
ATOM     16  C   UNL     1       4.951  -2.397   0.000  0.00  0.00    +0.000 C 
BRANCH  15  19
ATOM     17  O   UNL     1       2.093  -2.397   0.000  0.00  0.00    +0.000 OA
ATOM     18  O   UNL     1       2.808  -1.159   0.000  0.00  0.00    +0.000 OA
ATOM     19  C   UNL     1       2.808  -1.984   0.000  0.00  0.00    +0.000 C 
ENDBRANCH  15  19
ENDBRANCH   7  16
ENDBRANCH   1   7
BRANCH   4  20
ATOM     20  C   UNL     1       5.665   1.316   0.000  0.00  0.00    +0.000 C 
BRANCH  20  21
ATOM     21  C   UNL     1       6.380   1.728   0.000  0.00  0.00    +0.000 C 
BRANCH  21  23
ATOM     22  O   UNL     1       5.665   2.966   0.000  0.00  0.00    +0.000 OA
ATOM     23  C   UNL     1       6.380   2.553   0.000  0.00  0.00    +0.000 C 
BRANCH  23  28
ATOM     24  O   UNL     1       7.809   1.728   0.000  0.00  0.00    +0.000 OA
ATOM     25  O   UNL     1       6.380   4.203   0.000  0.00  0.00    +0.000 OA
ATOM     26  O   UNL     1       9.238   2.553   0.000  0.00  0.00    +0.000 OA
ATOM     27  O   UNL     1       9.238   4.203   0.000  0.00  0.00    +0.000 OA
ATOM     28  C   UNL     1       7.094   2.966   0.000  0.00  0.00    +0.000 A 
ATOM     29  C   UNL     1       7.809   2.553   0.000  0.00  0.00    +0.000 A 
ATOM     30  C   UNL     1       7.094   3.791   0.000  0.00  0.00    +0.000 A 
ATOM     31  C   UNL     1       8.523   2.966   0.000  0.00  0.00    +0.000 A 
ATOM     32  C   UNL     1       7.809   4.203   0.000  0.00  0.00    +0.000 A 
ATOM     33  C   UNL     1       8.523   3.791   0.000  0.00  0.00    +0.000 A 
ENDBRANCH  23  28
ENDBRANCH  21  23
ENDBRANCH  20  21
ENDBRANCH   4  20
TORSDOF 7
