REMARK  Name = 44259264
REMARK  13 active torsions:
REMARK  status: ('A' for Active; 'I' for Inactive)
REMARK    1  A    between atoms: O_1  and  C_24
REMARK    2  A    between atoms: O_1  and  C_26
REMARK    3  A    between atoms: O_5  and  C_31
REMARK    4  A    between atoms: O_5  and  C_41
REMARK    5  A    between atoms: O_10  and  C_34
REMARK    6  A    between atoms: O_10  and  C_45
REMARK    7  A    between atoms: O_14  and  C_40
REMARK    8  A    between atoms: O_14  and  C_49
REMARK    9  A    between atoms: C_32  and  C_34
REMARK   10  A    between atoms: C_38  and  C_42
REMARK   11  A    between atoms: C_43  and  C_47
REMARK   12  A    between atoms: C_45  and  C_50
REMARK   13  A    between atoms: C_57  and  C_58
REMARK                            x       y       z     vdW  Elec       q    Type
REMARK                         _______ _______ _______ _____ _____    ______ ____
ROOT
ATOM      1  O   UNL     1      11.381  -2.711   0.000  0.00  0.00    +0.000 OA
ATOM      2  O   UNL     1      13.524  -2.298   0.000  0.00  0.00    +0.000 OA
ATOM      3  O   UNL     1      13.524  -3.948   0.000  0.00  0.00    +0.000 OA
ATOM      4  O   UNL     1      12.096  -4.773   0.000  0.00  0.00    +0.000 OA
ATOM      5  C   UNL     1      12.096  -2.298   0.000  0.00  0.00    +0.000 C 
ATOM      6  C   UNL     1      12.810  -2.711   0.000  0.00  0.00    +0.000 C 
ATOM      7  C   UNL     1      12.810  -3.536   0.000  0.00  0.00    +0.000 C 
ATOM      8  C   UNL     1      12.096  -3.948   0.000  0.00  0.00    +0.000 C 
ATOM      9  C   UNL     1      11.381  -3.536   0.000  0.00  0.00    +0.000 C 
ENDROOT
BRANCH   5  10
ATOM     10  O   UNL     1      12.096  -1.473   0.000  0.00  0.00    +0.000 OA
BRANCH  10  14
ATOM     11  O   UNL     1      10.667   0.177   0.000  0.00  0.00    +0.000 OA
ATOM     12  O   UNL     1      10.667  -2.298   0.000  0.00  0.00    +0.000 OA
ATOM     13  O   UNL     1       9.238  -1.473   0.000  0.00  0.00    +0.000 OA
ATOM     14  C   UNL     1      11.381  -1.061   0.000  0.00  0.00    +0.000 C 
ATOM     15  C   UNL     1      10.667  -1.473   0.000  0.00  0.00    +0.000 C 
ATOM     16  C   UNL     1       9.952  -1.061   0.000  0.00  0.00    +0.000 C 
ATOM     17  C   UNL     1      11.381  -0.236   0.000  0.00  0.00    +0.000 C 
ATOM     18  C   UNL     1       9.952  -0.236   0.000  0.00  0.00    +0.000 C 
ATOM     19  C   UNL     1       9.238   0.177   0.000  0.00  0.00    +0.000 C 
BRANCH  17  20
ATOM     20  O   UNL     1      12.096   0.177   0.000  0.00  0.00    +0.000 OA
BRANCH  20  25
ATOM     21  O   UNL     1      12.810   2.239   0.000  0.00  0.00    +0.000 OA
ATOM     22  O   UNL     1      10.667   1.002   0.000  0.00  0.00    +0.000 OA
ATOM     23  O   UNL     1       9.921   2.237   0.000  0.00  0.00    +0.000 OA
ATOM     24  O   UNL     1      11.371   4.771   0.000  0.00  0.00    +0.000 OA
ATOM     25  C   UNL     1      12.096   1.002   0.000  0.00  0.00    +0.000 A 
ATOM     26  C   UNL     1      12.810   1.414   0.000  0.00  0.00    +0.000 A 
ATOM     27  C   UNL     1      11.381   1.414   0.000  0.00  0.00    +0.000 A 
ATOM     28  C   UNL     1      11.381   2.239   0.000  0.00  0.00    +0.000 A 
ATOM     29  C   UNL     1      12.096   2.652   0.000  0.00  0.00    +0.000 A 
ATOM     30  C   UNL     1      10.630   2.658   0.000  0.00  0.00    +0.000 A 
ATOM     31  C   UNL     1      12.109   3.511   0.000  0.00  0.00    +0.000 A 
ATOM     32  C   UNL     1      10.624   3.517   0.000  0.00  0.00    +0.000 A 
ATOM     33  C   UNL     1      11.368   3.946   0.000  0.00  0.00    +0.000 A 
BRANCH  26  36
ATOM     34  O   UNL     1      15.668   1.414   0.000  0.00  0.00    +0.000 OA
ATOM     35  O   UNL     1      15.668  -0.236   0.000  0.00  0.00    +0.000 OA
ATOM     36  C   UNL     1      13.524   1.002   0.000  0.00  0.00    +0.000 A 
ATOM     37  C   UNL     1      14.239   1.414   0.000  0.00  0.00    +0.000 A 
ATOM     38  C   UNL     1      13.524   0.177   0.000  0.00  0.00    +0.000 A 
ATOM     39  C   UNL     1      14.954   1.002   0.000  0.00  0.00    +0.000 A 
ATOM     40  C   UNL     1      14.239  -0.236   0.000  0.00  0.00    +0.000 A 
ATOM     41  C   UNL     1      14.954   0.177   0.000  0.00  0.00    +0.000 A 
ENDBRANCH  26  36
ENDBRANCH  20  25
ENDBRANCH  17  20
ENDBRANCH  10  14
ENDBRANCH   5  10
BRANCH   9  42
ATOM     42  C   UNL     1      10.667  -3.948   0.000  0.00  0.00    +0.000 C 
BRANCH  42  43
ATOM     43  O   UNL     1       9.952  -3.536   0.000  0.00  0.00    +0.000 OA
BRANCH  43  45
ATOM     44  O   UNL     1       9.238  -4.773   0.000  0.00  0.00    +0.000 OA
ATOM     45  C   UNL     1       9.238  -3.948   0.000  0.00  0.00    +0.000 C 
BRANCH  45  46
ATOM     46  C   UNL     1       8.523  -3.536   0.000  0.00  0.00    +0.000 C 
ATOM     47  C   UNL     1       7.809  -3.948   0.000  0.00  0.00    +0.000 C 
BRANCH  47  51
ATOM     48  C   UNL     1       5.665  -2.711   0.000  0.00  0.00    +0.000 A 
ATOM     49  C   UNL     1       6.380  -2.298   0.000  0.00  0.00    +0.000 A 
ATOM     50  C   UNL     1       5.665  -3.536   0.000  0.00  0.00    +0.000 A 
ATOM     51  C   UNL     1       7.094  -3.536   0.000  0.00  0.00    +0.000 A 
ATOM     52  C   UNL     1       7.094  -2.711   0.000  0.00  0.00    +0.000 A 
ATOM     53  C   UNL     1       6.380  -3.948   0.000  0.00  0.00    +0.000 A 
BRANCH  48  54
ATOM     54  O   UNL     1       4.951  -2.298   0.000  0.00  0.00    +0.000 OA
BRANCH  54  63
ATOM     55  O   UNL     1       3.522  -2.298   0.000  0.00  0.00    +0.000 OA
ATOM     56  O   UNL     1       2.093  -3.948   0.000  0.00  0.00    +0.000 OA
ATOM     57  O   UNL     1       3.522  -4.773   0.000  0.00  0.00    +0.000 OA
ATOM     58  O   UNL     1       4.951  -3.948   0.000  0.00  0.00    +0.000 OA
ATOM     59  C   UNL     1       2.808  -3.536   0.000  0.00  0.00    +0.000 C 
ATOM     60  C   UNL     1       3.522  -3.948   0.000  0.00  0.00    +0.000 C 
ATOM     61  C   UNL     1       2.808  -2.711   0.000  0.00  0.00    +0.000 C 
ATOM     62  C   UNL     1       4.236  -3.536   0.000  0.00  0.00    +0.000 C 
ATOM     63  C   UNL     1       4.236  -2.711   0.000  0.00  0.00    +0.000 C 
BRANCH  61  65
ATOM     64  O   UNL     1       2.093  -1.473   0.000  0.00  0.00    +0.000 OA
ATOM     65  C   UNL     1       2.093  -2.298   0.000  0.00  0.00    +0.000 C 
ENDBRANCH  61  65
ENDBRANCH  54  63
ENDBRANCH  48  54
ENDBRANCH  47  51
ENDBRANCH  45  46
ENDBRANCH  43  45
ENDBRANCH  42  43
ENDBRANCH   9  42
TORSDOF 13
