REMARK  Name = 44257993
REMARK  12 active torsions:
REMARK  status: ('A' for Active; 'I' for Inactive)
REMARK    1  A    between atoms: O_3  and  C_25
REMARK    2  A    between atoms: O_3  and  C_31
REMARK    3  A    between atoms: O_7  and  C_28
REMARK    4  A    between atoms: O_7  and  C_32
REMARK    5  A    between atoms: O_11  and  C_29
REMARK    6  A    between atoms: O_11  and  C_40
REMARK    7  A    between atoms: O_16  and  C_48
REMARK    8  A    between atoms: C_21  and  C_29
REMARK    9  A    between atoms: C_37  and  C_41
REMARK   10  A    between atoms: C_40  and  C_42
REMARK   11  A    between atoms: C_42  and  C_45
REMARK   12  A    between atoms: C_45  and  C_49
REMARK                            x       y       z     vdW  Elec       q    Type
REMARK                         _______ _______ _______ _____ _____    ______ ____
ROOT
ATOM      1  O   UNL     1      10.686   0.227   0.000  0.00  0.00    +0.000 OA
ATOM      2  O   UNL     1       8.548   1.473   0.000  0.00  0.00    +0.000 OA
ATOM      3  O   UNL     1       7.797   0.241   0.000  0.00  0.00    +0.000 OA
ATOM      4  C   UNL     1       9.238  -1.474   0.000  0.00  0.00    +0.000 A 
ATOM      5  C   UNL     1       9.977   1.467   0.000  0.00  0.00    +0.000 A 
ATOM      6  C   UNL     1       9.257   0.233   0.000  0.00  0.00    +0.000 A 
ATOM      7  C   UNL     1       9.970  -0.183   0.000  0.00  0.00    +0.000 A 
ATOM      8  C   UNL     1       9.980  -1.042   0.000  0.00  0.00    +0.000 A 
ATOM      9  C   UNL     1       9.261   1.058   0.000  0.00  0.00    +0.000 A 
ATOM     10  C   UNL     1      10.689   1.052   0.000  0.00  0.00    +0.000 A 
ATOM     11  C   UNL     1       8.495  -1.042   0.000  0.00  0.00    +0.000 A 
ATOM     12  C   UNL     1       8.505  -0.183   0.000  0.00  0.00    +0.000 A 
ENDROOT
BRANCH  10  13
ATOM     13  C   UNL     1      11.405   1.462   0.000  0.00  0.00    +0.000 A 
ATOM     14  C   UNL     1      11.409   2.287   0.000  0.00  0.00    +0.000 A 
ATOM     15  C   UNL     1      12.118   1.047   0.000  0.00  0.00    +0.000 A 
ATOM     16  C   UNL     1      12.125   2.696   0.000  0.00  0.00    +0.000 A 
ATOM     17  C   UNL     1      12.834   1.456   0.000  0.00  0.00    +0.000 A 
ATOM     18  C   UNL     1      12.838   2.281   0.000  0.00  0.00    +0.000 A 
BRANCH  18  19
ATOM     19  O   UNL     1      13.554   2.691   0.000  0.00  0.00    +0.000 OA
ATOM     20  C   UNL     1      14.267   2.276   0.000  0.00  0.00    +0.000 C 
ENDBRANCH  18  19
ENDBRANCH  10  13
BRANCH   4  21
ATOM     21  O   UNL     1       9.238  -2.300   0.000  0.00  0.00    +0.000 OA
BRANCH  21  30
ATOM     22  O   UNL     1       7.809  -2.300   0.000  0.00  0.00    +0.000 OA
ATOM     23  O   UNL     1       6.380  -3.950   0.000  0.00  0.00    +0.000 OA
ATOM     24  O   UNL     1       7.809  -4.774   0.000  0.00  0.00    +0.000 OA
ATOM     25  O   UNL     1       9.238  -3.950   0.000  0.00  0.00    +0.000 OA
ATOM     26  C   UNL     1       7.094  -3.537   0.000  0.00  0.00    +0.000 C 
ATOM     27  C   UNL     1       7.809  -3.950   0.000  0.00  0.00    +0.000 C 
ATOM     28  C   UNL     1       7.094  -2.712   0.000  0.00  0.00    +0.000 C 
ATOM     29  C   UNL     1       8.523  -3.537   0.000  0.00  0.00    +0.000 C 
ATOM     30  C   UNL     1       8.523  -2.712   0.000  0.00  0.00    +0.000 C 
BRANCH  28  31
ATOM     31  C   UNL     1       6.380  -2.300   0.000  0.00  0.00    +0.000 C 
BRANCH  31  32
ATOM     32  O   UNL     1       5.665  -2.712   0.000  0.00  0.00    +0.000 OA
BRANCH  32  34
ATOM     33  O   UNL     1       4.951  -1.474   0.000  0.00  0.00    +0.000 OA
ATOM     34  C   UNL     1       4.951  -2.300   0.000  0.00  0.00    +0.000 C 
BRANCH  34  35
ATOM     35  C   UNL     1       4.236  -2.712   0.000  0.00  0.00    +0.000 C 
BRANCH  35  36
ATOM     36  C   UNL     1       3.522  -2.300   0.000  0.00  0.00    +0.000 C 
BRANCH  36  39
ATOM     37  O   UNL     1       2.093  -2.300   0.000  0.00  0.00    +0.000 OA
ATOM     38  O   UNL     1       2.808  -3.537   0.000  0.00  0.00    +0.000 OA
ATOM     39  C   UNL     1       2.808  -2.712   0.000  0.00  0.00    +0.000 C 
ENDBRANCH  36  39
ENDBRANCH  35  36
ENDBRANCH  34  35
ENDBRANCH  32  34
ENDBRANCH  31  32
ENDBRANCH  28  31
ENDBRANCH  21  30
ENDBRANCH   4  21
BRANCH   5  40
ATOM     40  O   UNL     1       9.980   2.292   0.000  0.00  0.00    +0.000 OA
BRANCH  40  49
ATOM     41  O   UNL     1       8.551   2.298   0.000  0.00  0.00    +0.000 OA
ATOM     42  O   UNL     1       8.560   4.773   0.000  0.00  0.00    +0.000 OA
ATOM     43  O   UNL     1       7.128   3.953   0.000  0.00  0.00    +0.000 OA
ATOM     44  O   UNL     1       9.986   3.942   0.000  0.00  0.00    +0.000 OA
ATOM     45  C   UNL     1       8.557   3.948   0.000  0.00  0.00    +0.000 C 
ATOM     46  C   UNL     1       7.841   3.538   0.000  0.00  0.00    +0.000 C 
ATOM     47  C   UNL     1       9.270   3.533   0.000  0.00  0.00    +0.000 C 
ATOM     48  C   UNL     1       7.838   2.713   0.000  0.00  0.00    +0.000 C 
ATOM     49  C   UNL     1       9.267   2.708   0.000  0.00  0.00    +0.000 C 
ATOM     50  C   UNL     1       7.122   2.303   0.000  0.00  0.00    +0.000 C 
ENDBRANCH  40  49
ENDBRANCH   5  40
TORSDOF 12
