REMARK  Name = 131834170
REMARK  4 active torsions:
REMARK  status: ('A' for Active; 'I' for Inactive)
REMARK    1  A    between atoms: S_1  and  O_5
REMARK    2  A    between atoms: O_5  and  C_20
REMARK    3  A    between atoms: O_6  and  C_21
REMARK    4  A    between atoms: C_10  and  C_14
REMARK                            x       y       z     vdW  Elec       q    Type
REMARK                         _______ _______ _______ _____ _____    ______ ____
ROOT
ATOM      1  O   UNL     1       6.435  -0.014   0.000  0.00  0.00    +0.000 OA
ATOM      2  O   UNL     1       7.864   1.636   0.000  0.00  0.00    +0.000 OA
ATOM      3  O   UNL     1       4.993   2.489   0.000  0.00  0.00    +0.000 OA
ATOM      4  C   UNL     1       7.150   1.223   0.000  0.00  0.00    +0.000 C 
ATOM      5  C   UNL     1       7.150   0.398   0.000  0.00  0.00    +0.000 C 
ATOM      6  C   UNL     1       6.435   1.636   0.000  0.00  0.00    +0.000 C 
ATOM      7  C   UNL     1       5.721   1.223   0.000  0.00  0.00    +0.000 A 
ATOM      8  C   UNL     1       5.721   0.398   0.000  0.00  0.00    +0.000 A 
ATOM      9  C   UNL     1       4.983   1.664   0.000  0.00  0.00    +0.000 A 
ATOM     10  C   UNL     1       4.983  -0.043   0.000  0.00  0.00    +0.000 A 
ATOM     11  C   UNL     1       4.236   1.240   0.000  0.00  0.00    +0.000 A 
ATOM     12  C   UNL     1       4.236   0.381   0.000  0.00  0.00    +0.000 A 
ENDROOT
BRANCH   5  13
ATOM     13  C   UNL     1       7.864  -0.014   0.000  0.00  0.00    +0.000 A 
ATOM     14  C   UNL     1       7.864  -0.839   0.000  0.00  0.00    +0.000 A 
ATOM     15  C   UNL     1       8.579   0.398   0.000  0.00  0.00    +0.000 A 
ATOM     16  C   UNL     1       8.579  -1.252   0.000  0.00  0.00    +0.000 A 
ATOM     17  C   UNL     1       9.293  -0.014   0.000  0.00  0.00    +0.000 A 
ATOM     18  C   UNL     1       9.293  -0.839   0.000  0.00  0.00    +0.000 A 
BRANCH  16  19
ATOM     19  O   UNL     1       8.579  -2.077   0.000  0.00  0.00    +0.000 OA
ATOM     20  C   UNL     1       9.293  -2.489   0.000  0.00  0.00    +0.000 C 
ENDBRANCH  16  19
ENDBRANCH   5  13
BRANCH  12  21
ATOM     21  O   UNL     1       3.523  -0.034   0.000  0.00  0.00    +0.000 OA
BRANCH  21  22
ATOM     22  S   UNL     1       2.807   0.376   0.000  0.00  0.00    +0.000 S 
ATOM     23  O   UNL     1       2.094  -0.040   0.000  0.00  0.00    +0.000 OA
ATOM     24  O   UNL     1       2.804   1.200   0.000  0.00  0.00    +0.000 OA
ENDBRANCH  21  22
ENDBRANCH  12  21
TORSDOF 4
