REMARK  Name = 131831501
REMARK  12 active torsions:
REMARK  status: ('A' for Active; 'I' for Inactive)
REMARK    1  A    between atoms: O_1  and  C_22
REMARK    2  A    between atoms: O_1  and  C_24
REMARK    3  A    between atoms: O_4  and  C_21
REMARK    4  A    between atoms: O_4  and  C_32
REMARK    5  A    between atoms: O_7  and  C_28
REMARK    6  A    between atoms: O_7  and  C_35
REMARK    7  A    between atoms: O_12  and  C_37
REMARK    8  A    between atoms: O_12  and  C_48
REMARK    9  A    between atoms: C_21  and  C_30
REMARK   10  A    between atoms: C_29  and  C_31
REMARK   11  A    between atoms: C_38  and  C_46
REMARK   12  A    between atoms: C_42  and  C_43
REMARK                            x       y       z     vdW  Elec       q    Type
REMARK                         _______ _______ _______ _____ _____    ______ ____
ROOT
ATOM      1  C   UNL     1       5.665  -2.701   0.000  0.00  0.00    +0.000 A 
ATOM      2  C   UNL     1       6.380  -2.288   0.000  0.00  0.00    +0.000 A 
ATOM      3  C   UNL     1       4.951  -2.288   0.000  0.00  0.00    +0.000 A 
ATOM      4  C   UNL     1       5.665  -1.051   0.000  0.00  0.00    +0.000 A 
ATOM      5  C   UNL     1       6.380  -1.463   0.000  0.00  0.00    +0.000 A 
ATOM      6  C   UNL     1       4.951  -1.463   0.000  0.00  0.00    +0.000 A 
ENDROOT
BRANCH   4   9
ATOM      7  O   UNL     1       6.380   0.187   0.000  0.00  0.00    +0.000 OA
ATOM      8  O   UNL     1       4.236   1.424   0.000  0.00  0.00    +0.000 OA
ATOM      9  C   UNL     1       5.665  -0.226   0.000  0.00  0.00    +0.000 C 
ATOM     10  C   UNL     1       4.951   0.187   0.000  0.00  0.00    +0.000 C 
ATOM     11  C   UNL     1       7.137   2.289   0.000  0.00  0.00    +0.000 A 
ATOM     12  C   UNL     1       6.380   1.012   0.000  0.00  0.00    +0.000 A 
ATOM     13  C   UNL     1       5.665   1.424   0.000  0.00  0.00    +0.000 A 
ATOM     14  C   UNL     1       4.951   1.012   0.000  0.00  0.00    +0.000 C 
ATOM     15  C   UNL     1       7.131   1.430   0.000  0.00  0.00    +0.000 A 
ATOM     16  C   UNL     1       6.393   2.719   0.000  0.00  0.00    +0.000 A 
ATOM     17  C   UNL     1       5.652   2.284   0.000  0.00  0.00    +0.000 A 
BRANCH  11  18
ATOM     18  O   UNL     1       7.853   2.699   0.000  0.00  0.00    +0.000 OA
BRANCH  18  26
ATOM     19  O   UNL     1       8.572   3.934   0.000  0.00  0.00    +0.000 OA
ATOM     20  O   UNL     1       6.434   5.179   0.000  0.00  0.00    +0.000 OA
ATOM     21  O   UNL     1       6.428   3.530   0.000  0.00  0.00    +0.000 OA
ATOM     22  O   UNL     1       7.866   5.999   0.000  0.00  0.00    +0.000 OA
ATOM     23  C   UNL     1       7.147   4.764   0.000  0.00  0.00    +0.000 C 
ATOM     24  C   UNL     1       7.144   3.939   0.000  0.00  0.00    +0.000 C 
ATOM     25  C   UNL     1       7.863   5.174   0.000  0.00  0.00    +0.000 C 
ATOM     26  C   UNL     1       7.856   3.524   0.000  0.00  0.00    +0.000 C 
ATOM     27  C   UNL     1       8.576   4.759   0.000  0.00  0.00    +0.000 C 
BRANCH  27  30
ATOM     28  O   UNL     1      10.005   4.753   0.000  0.00  0.00    +0.000 OA
ATOM     29  O   UNL     1       9.295   5.994   0.000  0.00  0.00    +0.000 OA
ATOM     30  C   UNL     1       9.292   5.168   0.000  0.00  0.00    +0.000 C 
ENDBRANCH  27  30
ENDBRANCH  18  26
ENDBRANCH  11  18
ENDBRANCH   4   9
BRANCH   1  31
ATOM     31  O   UNL     1       5.665  -3.526   0.000  0.00  0.00    +0.000 OA
BRANCH  31  38
ATOM     32  O   UNL     1       4.236  -3.526   0.000  0.00  0.00    +0.000 OA
ATOM     33  O   UNL     1       4.236  -6.001   0.000  0.00  0.00    +0.000 OA
ATOM     34  O   UNL     1       2.808  -5.176   0.000  0.00  0.00    +0.000 OA
ATOM     35  C   UNL     1       4.951  -4.763   0.000  0.00  0.00    +0.000 C 
ATOM     36  C   UNL     1       4.236  -5.176   0.000  0.00  0.00    +0.000 C 
ATOM     37  C   UNL     1       3.522  -4.763   0.000  0.00  0.00    +0.000 C 
ATOM     38  C   UNL     1       4.951  -3.938   0.000  0.00  0.00    +0.000 C 
ATOM     39  C   UNL     1       3.522  -3.938   0.000  0.00  0.00    +0.000 C 
BRANCH  39  41
ATOM     40  O   UNL     1       2.093  -3.938   0.000  0.00  0.00    +0.000 OA
ATOM     41  C   UNL     1       2.808  -3.526   0.000  0.00  0.00    +0.000 C 
ENDBRANCH  39  41
BRANCH  35  42
ATOM     42  O   UNL     1       5.665  -5.176   0.000  0.00  0.00    +0.000 OA
BRANCH  42  47
ATOM     43  O   UNL     1       6.466  -3.943   0.000  0.00  0.00    +0.000 OA
ATOM     44  O   UNL     1       7.305  -5.906   0.000  0.00  0.00    +0.000 OA
ATOM     45  C   UNL     1       7.686  -4.486   0.000  0.00  0.00    +0.000 C 
ATOM     46  C   UNL     1       7.133  -5.099   0.000  0.00  0.00    +0.000 C 
ATOM     47  C   UNL     1       6.380  -4.763   0.000  0.00  0.00    +0.000 C 
ATOM     48  C   UNL     1       7.273  -3.771   0.000  0.00  0.00    +0.000 C 
BRANCH  45  50
ATOM     49  O   UNL     1       8.400  -3.248   0.000  0.00  0.00    +0.000 OA
ATOM     50  C   UNL     1       8.400  -4.073   0.000  0.00  0.00    +0.000 C 
ENDBRANCH  45  50
BRANCH  45  51
ATOM     51  O   UNL     1       8.299  -5.038   0.000  0.00  0.00    +0.000 OA
BRANCH  51  53
ATOM     52  O   UNL     1       9.255  -3.976   0.000  0.00  0.00    +0.000 OA
ATOM     53  C   UNL     1       9.083  -4.783   0.000  0.00  0.00    +0.000 C 
ATOM     54  C   UNL     1       9.696  -5.335   0.000  0.00  0.00    +0.000 C 
ENDBRANCH  51  53
ENDBRANCH  45  51
ENDBRANCH  42  47
ENDBRANCH  35  42
ENDBRANCH  31  38
ENDBRANCH   1  31
TORSDOF 12
