REMARK  Name = 42607911
REMARK  12 active torsions:
REMARK  status: ('A' for Active; 'I' for Inactive)
REMARK    1  A    between atoms: O_2  and  C_15
REMARK    2  A    between atoms: O_2  and  C_22
REMARK    3  A    between atoms: O_3  and  C_19
REMARK    4  A    between atoms: O_3  and  C_21
REMARK    5  A    between atoms: O_6  and  C_20
REMARK    6  A    between atoms: O_6  and  C_31
REMARK    7  A    between atoms: C_18  and  C_20
REMARK    8  A    between atoms: C_22  and  C_32
REMARK    9  A    between atoms: C_27  and  C_33
REMARK   10  A    between atoms: C_31  and  C_34
REMARK   11  A    between atoms: C_37  and  C_40
REMARK   12  A    between atoms: C_42  and  C_43
REMARK                            x       y       z     vdW  Elec       q    Type
REMARK                         _______ _______ _______ _____ _____    ______ ____
ROOT
ATOM      1  O   UNL     1       9.238   1.089   0.000  0.00  0.00    +0.000 OA
ATOM      2  O   UNL     1       7.809  -0.561   0.000  0.00  0.00    +0.000 OA
ATOM      3  O   UNL     1      10.667  -0.561   0.000  0.00  0.00    +0.000 OA
ATOM      4  C   UNL     1       9.238  -0.561   0.000  0.00  0.00    +0.000 C 
ATOM      5  C   UNL     1       8.523  -0.148   0.000  0.00  0.00    +0.000 C 
ATOM      6  C   UNL     1       9.952  -0.148   0.000  0.00  0.00    +0.000 C 
ATOM      7  C   UNL     1       8.523   0.677   0.000  0.00  0.00    +0.000 C 
ATOM      8  C   UNL     1       9.952   0.677   0.000  0.00  0.00    +0.000 C 
ENDROOT
BRANCH   4   9
ATOM      9  O   UNL     1       9.238  -1.386   0.000  0.00  0.00    +0.000 OA
BRANCH   9  11
ATOM     10  O   UNL     1       7.809  -1.386   0.000  0.00  0.00    +0.000 OA
ATOM     11  C   UNL     1       8.523  -1.798   0.000  0.00  0.00    +0.000 C 
BRANCH  11  12
ATOM     12  C   UNL     1       8.523  -2.623   0.000  0.00  0.00    +0.000 C 
ATOM     13  C   UNL     1       7.809  -3.036   0.000  0.00  0.00    +0.000 C 
BRANCH  13  15
ATOM     14  O   UNL     1       7.809  -6.336   0.000  0.00  0.00    +0.000 OA
ATOM     15  C   UNL     1       7.809  -3.861   0.000  0.00  0.00    +0.000 A 
ATOM     16  C   UNL     1       7.094  -4.273   0.000  0.00  0.00    +0.000 A 
ATOM     17  C   UNL     1       8.523  -4.273   0.000  0.00  0.00    +0.000 A 
ATOM     18  C   UNL     1       7.094  -5.098   0.000  0.00  0.00    +0.000 A 
ATOM     19  C   UNL     1       8.523  -5.098   0.000  0.00  0.00    +0.000 A 
ATOM     20  C   UNL     1       7.809  -5.511   0.000  0.00  0.00    +0.000 A 
ENDBRANCH  13  15
ENDBRANCH  11  12
ENDBRANCH   9  11
ENDBRANCH   4   9
BRANCH   8  21
ATOM     21  O   UNL     1      10.667   1.089   0.000  0.00  0.00    +0.000 OA
BRANCH  21  25
ATOM     22  O   UNL     1      12.115   3.616   0.000  0.00  0.00    +0.000 OA
ATOM     23  O   UNL     1       9.226   3.630   0.000  0.00  0.00    +0.000 OA
ATOM     24  O   UNL     1       9.977   4.862   0.000  0.00  0.00    +0.000 OA
ATOM     25  C   UNL     1      10.667   1.914   0.000  0.00  0.00    +0.000 A 
ATOM     26  C   UNL     1      11.409   2.347   0.000  0.00  0.00    +0.000 A 
ATOM     27  C   UNL     1      11.399   3.206   0.000  0.00  0.00    +0.000 A 
ATOM     28  C   UNL     1       9.924   2.347   0.000  0.00  0.00    +0.000 A 
ATOM     29  C   UNL     1      10.686   3.621   0.000  0.00  0.00    +0.000 A 
ATOM     30  C   UNL     1      12.118   4.441   0.000  0.00  0.00    +0.000 C 
ATOM     31  C   UNL     1      11.406   4.856   0.000  0.00  0.00    +0.000 C 
ATOM     32  C   UNL     1       9.934   3.206   0.000  0.00  0.00    +0.000 A 
ATOM     33  C   UNL     1      10.690   4.446   0.000  0.00  0.00    +0.000 C 
BRANCH  30  35
ATOM     34  O   UNL     1      14.983   6.080   0.000  0.00  0.00    +0.000 OA
ATOM     35  C   UNL     1      12.835   4.851   0.000  0.00  0.00    +0.000 A 
ATOM     36  C   UNL     1      12.838   5.676   0.000  0.00  0.00    +0.000 A 
ATOM     37  C   UNL     1      13.547   4.435   0.000  0.00  0.00    +0.000 A 
ATOM     38  C   UNL     1      13.554   6.085   0.000  0.00  0.00    +0.000 A 
ATOM     39  C   UNL     1      14.263   4.845   0.000  0.00  0.00    +0.000 A 
ATOM     40  C   UNL     1      14.267   5.670   0.000  0.00  0.00    +0.000 A 
ENDBRANCH  30  35
ENDBRANCH  21  25
ENDBRANCH   8  21
BRANCH   7  41
ATOM     41  C   UNL     1       7.809   1.089   0.000  0.00  0.00    +0.000 C 
BRANCH  41  42
ATOM     42  O   UNL     1       7.094   0.677   0.000  0.00  0.00    +0.000 OA
BRANCH  42  44
ATOM     43  O   UNL     1       6.380   1.914   0.000  0.00  0.00    +0.000 OA
ATOM     44  C   UNL     1       6.380   1.089   0.000  0.00  0.00    +0.000 C 
BRANCH  44  45
ATOM     45  C   UNL     1       5.665   0.677   0.000  0.00  0.00    +0.000 C 
ATOM     46  C   UNL     1       4.951   1.089   0.000  0.00  0.00    +0.000 C 
BRANCH  46  48
ATOM     47  O   UNL     1       2.093  -0.561   0.000  0.00  0.00    +0.000 OA
ATOM     48  C   UNL     1       4.236   0.677   0.000  0.00  0.00    +0.000 A 
ATOM     49  C   UNL     1       3.522   1.089   0.000  0.00  0.00    +0.000 A 
ATOM     50  C   UNL     1       4.236  -0.148   0.000  0.00  0.00    +0.000 A 
ATOM     51  C   UNL     1       2.808   0.677   0.000  0.00  0.00    +0.000 A 
ATOM     52  C   UNL     1       3.522  -0.561   0.000  0.00  0.00    +0.000 A 
ATOM     53  C   UNL     1       2.808  -0.148   0.000  0.00  0.00    +0.000 A 
ENDBRANCH  46  48
ENDBRANCH  44  45
ENDBRANCH  42  44
ENDBRANCH  41  42
ENDBRANCH   7  41
TORSDOF 12
