REMARK  Name = 44257175
REMARK  4 active torsions:
REMARK  status: ('A' for Active; 'I' for Inactive)
REMARK    1  A    between atoms: O_2  and  C_14
REMARK    2  A    between atoms: O_2  and  C_21
REMARK    3  A    between atoms: C_13  and  C_15
REMARK    4  A    between atoms: C_16  and  C_22
REMARK                            x       y       z     vdW  Elec       q    Type
REMARK                         _______ _______ _______ _____ _____    ______ ____
ROOT
ATOM      1  O   UNL     1       7.114   0.953   0.000  0.00  0.00    +0.000 OA
ATOM      2  C   UNL     1       7.117   1.778   0.000  0.00  0.00    +0.000 C 
ATOM      3  C   UNL     1       6.404   2.193   0.000  0.00  0.00    +0.000 C 
ATOM      4  C   UNL     1       5.688   1.783   0.000  0.00  0.00    +0.000 C 
ATOM      5  C   UNL     1       5.685   0.958   0.000  0.00  0.00    +0.000 A 
ATOM      6  C   UNL     1       6.398   0.543   0.000  0.00  0.00    +0.000 A 
ATOM      7  C   UNL     1       5.665  -0.749   0.000  0.00  0.00    +0.000 A 
ATOM      8  C   UNL     1       6.408  -0.317   0.000  0.00  0.00    +0.000 A 
ATOM      9  C   UNL     1       4.933   0.543   0.000  0.00  0.00    +0.000 A 
ATOM     10  C   UNL     1       4.923  -0.317   0.000  0.00  0.00    +0.000 A 
ENDROOT
BRANCH   2  13
ATOM     11  O   UNL     1       8.728   4.223   0.000  0.00  0.00    +0.000 OA
ATOM     12  O   UNL     1       9.876   3.555   0.000  0.00  0.00    +0.000 OA
ATOM     13  C   UNL     1       7.833   2.187   0.000  0.00  0.00    +0.000 A 
ATOM     14  C   UNL     1       7.836   3.012   0.000  0.00  0.00    +0.000 A 
ATOM     15  C   UNL     1       8.546   1.772   0.000  0.00  0.00    +0.000 A 
ATOM     16  C   UNL     1       8.552   3.422   0.000  0.00  0.00    +0.000 A 
ATOM     17  C   UNL     1       9.265   3.007   0.000  0.00  0.00    +0.000 A 
ATOM     18  C   UNL     1       9.262   2.182   0.000  0.00  0.00    +0.000 A 
ATOM     19  C   UNL     1       9.544   4.305   0.000  0.00  0.00    +0.000 C 
ENDBRANCH   2  13
BRANCH   7  20
ATOM     20  O   UNL     1       5.665  -1.574   0.000  0.00  0.00    +0.000 OA
BRANCH  20  29
ATOM     21  O   UNL     1       4.236  -1.574   0.000  0.00  0.00    +0.000 OA
ATOM     22  O   UNL     1       4.236  -4.049   0.000  0.00  0.00    +0.000 OA
ATOM     23  O   UNL     1       2.808  -3.224   0.000  0.00  0.00    +0.000 OA
ATOM     24  O   UNL     1       5.665  -3.224   0.000  0.00  0.00    +0.000 OA
ATOM     25  C   UNL     1       4.236  -3.224   0.000  0.00  0.00    +0.000 C 
ATOM     26  C   UNL     1       3.522  -2.812   0.000  0.00  0.00    +0.000 C 
ATOM     27  C   UNL     1       4.951  -2.812   0.000  0.00  0.00    +0.000 C 
ATOM     28  C   UNL     1       3.522  -1.987   0.000  0.00  0.00    +0.000 C 
ATOM     29  C   UNL     1       4.951  -1.987   0.000  0.00  0.00    +0.000 C 
BRANCH  28  31
ATOM     30  O   UNL     1       2.093  -1.987   0.000  0.00  0.00    +0.000 OA
ATOM     31  C   UNL     1       2.808  -1.574   0.000  0.00  0.00    +0.000 C 
ENDBRANCH  28  31
ENDBRANCH  20  29
ENDBRANCH   7  20
TORSDOF 4
