REMARK  Name = 12305452
REMARK  4 active torsions:
REMARK  status: ('A' for Active; 'I' for Inactive)
REMARK    1  A    between atoms: O_4  and  C_14
REMARK    2  A    between atoms: O_5  and  C_17
REMARK    3  A    between atoms: O_6  and  C_22
REMARK    4  A    between atoms: C_8  and  C_9
REMARK                            x       y       z     vdW  Elec       q    Type
REMARK                         _______ _______ _______ _____ _____    ______ ____
ROOT
ATOM      1  O   UNL     1       5.278   0.000   0.000  0.00  0.00    +0.000 OA
ATOM      2  O   UNL     1       5.278   2.475   0.000  0.00  0.00    +0.000 OA
ATOM      3  C   UNL     1       5.993   0.412   0.000  0.00  0.00    +0.000 A 
ATOM      4  C   UNL     1       4.564   1.238   0.000  0.00  0.00    +0.000 A 
ATOM      5  C   UNL     1       5.993   1.238   0.000  0.00  0.00    +0.000 A 
ATOM      6  C   UNL     1       4.564   0.412   0.000  0.00  0.00    +0.000 A 
ATOM      7  C   UNL     1       5.278   1.650   0.000  0.00  0.00    +0.000 A 
ATOM      8  C   UNL     1       3.826  -0.029   0.000  0.00  0.00    +0.000 A 
ATOM      9  C   UNL     1       3.826   1.679   0.000  0.00  0.00    +0.000 A 
ATOM     10  C   UNL     1       3.079   0.395   0.000  0.00  0.00    +0.000 A 
ATOM     11  C   UNL     1       3.079   1.255   0.000  0.00  0.00    +0.000 A 
ENDROOT
BRANCH   3  14
ATOM     12  O   UNL     1       8.917   0.251   0.000  0.00  0.00    +0.000 OA
ATOM     13  O   UNL     1       8.917  -1.076   0.000  0.00  0.00    +0.000 OA
ATOM     14  C   UNL     1       6.707   0.000   0.000  0.00  0.00    +0.000 A 
ATOM     15  C   UNL     1       8.136   0.000   0.000  0.00  0.00    +0.000 A 
ATOM     16  C   UNL     1       8.136  -0.825   0.000  0.00  0.00    +0.000 A 
ATOM     17  C   UNL     1       7.422   0.412   0.000  0.00  0.00    +0.000 A 
ATOM     18  C   UNL     1       6.707  -0.825   0.000  0.00  0.00    +0.000 A 
ATOM     19  C   UNL     1       7.422  -1.238   0.000  0.00  0.00    +0.000 A 
ATOM     20  C   UNL     1       9.398  -0.412   0.000  0.00  0.00    +0.000 C 
BRANCH  19  21
ATOM     21  O   UNL     1       7.422  -2.062   0.000  0.00  0.00    +0.000 OA
ATOM     22  C   UNL     1       6.707  -2.475   0.000  0.00  0.00    +0.000 C 
ENDBRANCH  19  21
ENDBRANCH   3  14
BRANCH   5  23
ATOM     23  O   UNL     1       6.707   1.650   0.000  0.00  0.00    +0.000 OA
ATOM     24  C   UNL     1       6.707   2.475   0.000  0.00  0.00    +0.000 C 
ENDBRANCH   5  23
BRANCH  10  25
ATOM     25  O   UNL     1       2.366  -0.020   0.000  0.00  0.00    +0.000 OA
ATOM     26  C   UNL     1       1.650   0.390   0.000  0.00  0.00    +0.000 C 
ENDBRANCH  10  25
TORSDOF 4
