REMARK  Name = 131833341
REMARK  8 active torsions:
REMARK  status: ('A' for Active; 'I' for Inactive)
REMARK    1  A    between atoms: O_3  and  C_34
REMARK    2  A    between atoms: O_3  and  C_37
REMARK    3  A    between atoms: C_22  and  C_27
REMARK    4  A    between atoms: C_23  and  C_29
REMARK    5  A    between atoms: C_32  and  C_41
REMARK    6  A    between atoms: C_33  and  C_42
REMARK    7  A    between atoms: C_44  and  C_48
REMARK    8  A    between atoms: C_46  and  C_49
REMARK                            x       y       z     vdW  Elec       q    Type
REMARK                         _______ _______ _______ _____ _____    ______ ____
ROOT
ATOM      1  O   UNL     1      10.160   0.771   0.000  0.00  0.00    +0.000 OA
ATOM      2  O   UNL     1       7.811   3.081   0.000  0.00  0.00    +0.000 OA
ATOM      3  O   UNL     1       9.100   3.651   0.000  0.00  0.00    +0.000 OA
ATOM      4  C   UNL     1       8.495   0.201   0.000  0.00  0.00    +0.000 A 
ATOM      5  C   UNL     1       7.168   1.315   0.000  0.00  0.00    +0.000 A 
ATOM      6  C   UNL     1       7.510   0.375   0.000  0.00  0.00    +0.000 A 
ATOM      7  C   UNL     1       9.137   0.967   0.000  0.00  0.00    +0.000 A 
ATOM      8  C   UNL     1       7.811   2.081   0.000  0.00  0.00    +0.000 A 
ATOM      9  C   UNL     1       8.795   1.907   0.000  0.00  0.00    +0.000 A 
ATOM     10  C   UNL     1       9.453   2.715   0.000  0.00  0.00    +0.000 A 
ATOM     11  C   UNL     1      10.836   1.563   0.000  0.00  0.00    +0.000 A 
ATOM     12  C   UNL     1      10.480   2.542   0.000  0.00  0.00    +0.000 A 
ENDROOT
BRANCH   4  17
ATOM     13  O   UNL     1       8.194  -1.504   0.000  0.00  0.00    +0.000 OA
ATOM     14  O   UNL     1      10.464  -0.146   0.000  0.00  0.00    +0.000 OA
ATOM     15  O   UNL     1      11.148  -2.025   0.000  0.00  0.00    +0.000 OA
ATOM     16  O   UNL     1       9.863  -3.557   0.000  0.00  0.00    +0.000 OA
ATOM     17  C   UNL     1       8.837  -0.738   0.000  0.00  0.00    +0.000 C 
ATOM     18  C   UNL     1       9.822  -0.912   0.000  0.00  0.00    +0.000 C 
ATOM     19  C   UNL     1      10.164  -1.852   0.000  0.00  0.00    +0.000 C 
ATOM     20  C   UNL     1       9.521  -2.618   0.000  0.00  0.00    +0.000 C 
ATOM     21  C   UNL     1       8.536  -2.444   0.000  0.00  0.00    +0.000 C 
BRANCH  21  23
ATOM     22  O   UNL     1       8.235  -4.150   0.000  0.00  0.00    +0.000 OA
ATOM     23  C   UNL     1       7.893  -3.210   0.000  0.00  0.00    +0.000 C 
ENDBRANCH  21  23
ENDBRANCH   4  17
BRANCH   5  28
ATOM     24  O   UNL     1       5.436   1.315   0.000  0.00  0.00    +0.000 OA
ATOM     25  O   UNL     1       6.945   3.581   0.000  0.00  0.00    +0.000 OA
ATOM     26  O   UNL     1       5.436   4.315   0.000  0.00  0.00    +0.000 OA
ATOM     27  O   UNL     1       3.704   3.315   0.000  0.00  0.00    +0.000 OA
ATOM     28  C   UNL     1       6.302   1.815   0.000  0.00  0.00    +0.000 C 
ATOM     29  C   UNL     1       6.302   2.815   0.000  0.00  0.00    +0.000 C 
ATOM     30  C   UNL     1       5.436   3.315   0.000  0.00  0.00    +0.000 C 
ATOM     31  C   UNL     1       4.570   2.815   0.000  0.00  0.00    +0.000 C 
ATOM     32  C   UNL     1       4.570   1.815   0.000  0.00  0.00    +0.000 C 
BRANCH  32  34
ATOM     33  O   UNL     1       2.719   1.488   0.000  0.00  0.00    +0.000 OA
ATOM     34  C   UNL     1       3.704   1.315   0.000  0.00  0.00    +0.000 C 
ENDBRANCH  32  34
ENDBRANCH   5  28
BRANCH  11  36
ATOM     35  O   UNL     1      13.481  -0.673   0.000  0.00  0.00    +0.000 OA
ATOM     36  C   UNL     1      11.820   1.386   0.000  0.00  0.00    +0.000 A 
ATOM     37  C   UNL     1      12.159   0.445   0.000  0.00  0.00    +0.000 A 
ATOM     38  C   UNL     1      12.466   2.150   0.000  0.00  0.00    +0.000 A 
ATOM     39  C   UNL     1      13.143   0.268   0.000  0.00  0.00    +0.000 A 
ATOM     40  C   UNL     1      13.450   1.972   0.000  0.00  0.00    +0.000 A 
ATOM     41  C   UNL     1      13.788   1.031   0.000  0.00  0.00    +0.000 A 
ENDBRANCH  11  36
BRANCH   6  42
ATOM     42  O   UNL     1       6.867  -0.391   0.000  0.00  0.00    +0.000 OA
BRANCH  42  47
ATOM     43  O   UNL     1       5.135  -0.391   0.000  0.00  0.00    +0.000 OA
ATOM     44  O   UNL     1       6.867  -2.391   0.000  0.00  0.00    +0.000 OA
ATOM     45  O   UNL     1       5.135  -3.391   0.000  0.00  0.00    +0.000 OA
ATOM     46  O   UNL     1       3.403  -2.391   0.000  0.00  0.00    +0.000 OA
ATOM     47  C   UNL     1       6.001  -0.891   0.000  0.00  0.00    +0.000 C 
ATOM     48  C   UNL     1       6.001  -1.891   0.000  0.00  0.00    +0.000 C 
ATOM     49  C   UNL     1       5.135  -2.391   0.000  0.00  0.00    +0.000 C 
ATOM     50  C   UNL     1       4.269  -1.891   0.000  0.00  0.00    +0.000 C 
ATOM     51  C   UNL     1       4.269  -0.891   0.000  0.00  0.00    +0.000 C 
BRANCH  51  54
ATOM     52  O   UNL     1       2.537  -0.891   0.000  0.00  0.00    +0.000 OA
ATOM     53  O   UNL     1       3.403   0.609   0.000  0.00  0.00    +0.000 OA
ATOM     54  C   UNL     1       3.403  -0.391   0.000  0.00  0.00    +0.000 C 
ENDBRANCH  51  54
ENDBRANCH  42  47
ENDBRANCH   6  42
TORSDOF 8
