REMARK  Name = 91810602
REMARK  3 active torsions:
REMARK  status: ('A' for Active; 'I' for Inactive)
REMARK    1  A    between atoms: O_3  and  C_15
REMARK    2  A    between atoms: O_3  and  C_17
REMARK    3  A    between atoms: C_18  and  C_22
REMARK                            x       y       z     vdW  Elec       q    Type
REMARK                         _______ _______ _______ _____ _____    ______ ____
ROOT
ATOM      1 CL   UNL     1       6.068  -2.750   0.000  0.00  0.00    +0.000 Cl
ENDROOT
TORSDOF 0
REMARK  Name = 91810602
REMARK  3 active torsions:
REMARK  status: ('A' for Active; 'I' for Inactive)
REMARK    1  A    between atoms: O_3  and  C_15
REMARK    2  A    between atoms: O_3  and  C_17
REMARK    3  A    between atoms: C_18  and  C_22
REMARK                            x       y       z     vdW  Elec       q    Type
REMARK                         _______ _______ _______ _____ _____    ______ ____
ROOT
ATOM      1  O   UNL     1       6.068  -1.750   0.000  0.00  0.00    +0.000 OA
ATOM      2  O   UNL     1       4.320   1.285   0.000  0.00  0.00    +0.000 OA
ATOM      3  O   UNL     1       2.538  -1.774   0.000  0.00  0.00    +0.000 OA
ATOM      4  C   UNL     1       6.934  -0.250   0.000  0.00  0.00    +0.000 A 
ATOM      5  C   UNL     1       6.934  -1.250   0.000  0.00  0.00    +0.000 A 
ATOM      6  C   UNL     1       6.068   0.250   0.000  0.00  0.00    +0.000 A 
ATOM      7  C   UNL     1       5.202  -0.250   0.000  0.00  0.00    +0.000 A 
ATOM      8  C   UNL     1       5.202  -1.250   0.000  0.00  0.00    +0.000 A 
ATOM      9  C   UNL     1       4.308   0.285   0.000  0.00  0.00    +0.000 A 
ATOM     10  C   UNL     1       4.308  -1.785   0.000  0.00  0.00    +0.000 A 
ATOM     11  C   UNL     1       3.402  -0.229   0.000  0.00  0.00    +0.000 A 
ATOM     12  C   UNL     1       3.402  -1.271   0.000  0.00  0.00    +0.000 A 
ENDROOT
BRANCH   5  15
ATOM     13  O   UNL     1       8.666  -4.250   0.000  0.00  0.00    +0.000 OA
ATOM     14  O   UNL     1      10.398  -3.250   0.000  0.00  0.00    +0.000 OA
ATOM     15  C   UNL     1       7.800  -1.750   0.000  0.00  0.00    +0.000 A 
ATOM     16  C   UNL     1       7.800  -2.750   0.000  0.00  0.00    +0.000 A 
ATOM     17  C   UNL     1       8.666  -1.250   0.000  0.00  0.00    +0.000 A 
ATOM     18  C   UNL     1       8.666  -3.250   0.000  0.00  0.00    +0.000 A 
ATOM     19  C   UNL     1       9.532  -1.750   0.000  0.00  0.00    +0.000 A 
ATOM     20  C   UNL     1       9.532  -2.750   0.000  0.00  0.00    +0.000 A 
ENDBRANCH   5  15
BRANCH   4  21
ATOM     21  O   UNL     1       7.800   0.250   0.000  0.00  0.00    +0.000 OA
BRANCH  21  29
ATOM     22  O   UNL     1       8.666   1.750   0.000  0.00  0.00    +0.000 OA
ATOM     23  O   UNL     1       6.068   3.250   0.000  0.00  0.00    +0.000 OA
ATOM     24  O   UNL     1       6.068   1.250   0.000  0.00  0.00    +0.000 OA
ATOM     25  O   UNL     1       7.800   4.250   0.000  0.00  0.00    +0.000 OA
ATOM     26  C   UNL     1       6.934   2.750   0.000  0.00  0.00    +0.000 C 
ATOM     27  C   UNL     1       6.934   1.750   0.000  0.00  0.00    +0.000 C 
ATOM     28  C   UNL     1       7.800   3.250   0.000  0.00  0.00    +0.000 C 
ATOM     29  C   UNL     1       7.800   1.250   0.000  0.00  0.00    +0.000 C 
ATOM     30  C   UNL     1       8.666   2.750   0.000  0.00  0.00    +0.000 C 
ENDBRANCH  21  29
ENDBRANCH   4  21
TORSDOF 3
