REMARK  Name = 42607945
REMARK  11 active torsions:
REMARK  status: ('A' for Active; 'I' for Inactive)
REMARK    1  A    between atoms: O_2  and  C_19
REMARK    2  A    between atoms: O_2  and  C_30
REMARK    3  A    between atoms: O_3  and  C_23
REMARK    4  A    between atoms: O_3  and  C_25
REMARK    5  A    between atoms: O_6  and  C_24
REMARK    6  A    between atoms: O_6  and  C_39
REMARK    7  A    between atoms: O_12  and  C_49
REMARK    8  A    between atoms: C_21  and  C_24
REMARK    9  A    between atoms: C_30  and  C_38
REMARK   10  A    between atoms: C_31  and  C_37
REMARK   11  A    between atoms: C_39  and  C_42
REMARK                            x       y       z     vdW  Elec       q    Type
REMARK                         _______ _______ _______ _____ _____    ______ ____
ROOT
ATOM      1  O   UNL     1       6.380  -0.299   0.000  0.00  0.00    +0.000 OA
ATOM      2  O   UNL     1       6.380  -2.774   0.000  0.00  0.00    +0.000 OA
ATOM      3  O   UNL     1       7.809  -1.949   0.000  0.00  0.00    +0.000 OA
ATOM      4  C   UNL     1       5.665  -1.537   0.000  0.00  0.00    +0.000 C 
ATOM      5  C   UNL     1       6.380  -1.949   0.000  0.00  0.00    +0.000 C 
ATOM      6  C   UNL     1       5.665  -0.712   0.000  0.00  0.00    +0.000 C 
ATOM      7  C   UNL     1       7.094  -1.537   0.000  0.00  0.00    +0.000 C 
ATOM      8  C   UNL     1       7.094  -0.712   0.000  0.00  0.00    +0.000 C 
ENDROOT
BRANCH   4   9
ATOM      9  O   UNL     1       4.951  -1.949   0.000  0.00  0.00    +0.000 OA
BRANCH   9  11
ATOM     10  O   UNL     1       5.665  -3.187   0.000  0.00  0.00    +0.000 OA
ATOM     11  C   UNL     1       4.951  -2.774   0.000  0.00  0.00    +0.000 C 
BRANCH  11  15
ATOM     12  O   UNL     1       3.522  -5.249   0.000  0.00  0.00    +0.000 OA
ATOM     13  O   UNL     1       2.093  -2.774   0.000  0.00  0.00    +0.000 OA
ATOM     14  O   UNL     1       2.093  -4.424   0.000  0.00  0.00    +0.000 OA
ATOM     15  C   UNL     1       4.236  -3.187   0.000  0.00  0.00    +0.000 A 
ATOM     16  C   UNL     1       3.522  -2.774   0.000  0.00  0.00    +0.000 A 
ATOM     17  C   UNL     1       4.236  -4.012   0.000  0.00  0.00    +0.000 A 
ATOM     18  C   UNL     1       3.522  -4.424   0.000  0.00  0.00    +0.000 A 
ATOM     19  C   UNL     1       2.808  -3.187   0.000  0.00  0.00    +0.000 A 
ATOM     20  C   UNL     1       2.808  -4.012   0.000  0.00  0.00    +0.000 A 
ENDBRANCH  11  15
ENDBRANCH   9  11
ENDBRANCH   4   9
BRANCH   8  21
ATOM     21  O   UNL     1       7.809  -0.299   0.000  0.00  0.00    +0.000 OA
BRANCH  21  25
ATOM     22  O   UNL     1       9.274   2.182   0.000  0.00  0.00    +0.000 OA
ATOM     23  O   UNL     1       6.380   2.176   0.000  0.00  0.00    +0.000 OA
ATOM     24  O   UNL     1       7.076   3.439   0.000  0.00  0.00    +0.000 OA
ATOM     25  C   UNL     1       7.809   0.526   0.000  0.00  0.00    +0.000 A 
ATOM     26  C   UNL     1       8.523   0.938   0.000  0.00  0.00    +0.000 A 
ATOM     27  C   UNL     1       7.094   0.938   0.000  0.00  0.00    +0.000 A 
ATOM     28  C   UNL     1       8.523   1.763   0.000  0.00  0.00    +0.000 A 
ATOM     29  C   UNL     1       7.809   2.176   0.000  0.00  0.00    +0.000 A 
ATOM     30  C   UNL     1       9.281   3.041   0.000  0.00  0.00    +0.000 C 
ATOM     31  C   UNL     1       7.094   1.763   0.000  0.00  0.00    +0.000 A 
ATOM     32  C   UNL     1       8.536   3.470   0.000  0.00  0.00    +0.000 C 
ATOM     33  C   UNL     1       7.795   3.035   0.000  0.00  0.00    +0.000 C 
ATOM     34  C   UNL     1       9.238   0.526   0.000  0.00  0.00    +0.000 C 
ATOM     35  C   UNL     1       6.380   0.526   0.000  0.00  0.00    +0.000 C 
BRANCH  30  36
ATOM     36  C   UNL     1       9.997   3.451   0.000  0.00  0.00    +0.000 A 
ATOM     37  C   UNL     1      10.000   4.276   0.000  0.00  0.00    +0.000 A 
ATOM     38  C   UNL     1      10.710   3.035   0.000  0.00  0.00    +0.000 A 
ATOM     39  C   UNL     1      10.716   4.685   0.000  0.00  0.00    +0.000 A 
ATOM     40  C   UNL     1      11.426   3.445   0.000  0.00  0.00    +0.000 A 
ATOM     41  C   UNL     1      11.429   4.270   0.000  0.00  0.00    +0.000 A 
BRANCH  41  42
ATOM     42  O   UNL     1      12.145   4.680   0.000  0.00  0.00    +0.000 OA
ATOM     43  C   UNL     1      12.148   5.505   0.000  0.00  0.00    +0.000 C 
ENDBRANCH  41  42
ENDBRANCH  30  36
ENDBRANCH  21  25
ENDBRANCH   8  21
BRANCH   6  44
ATOM     44  C   UNL     1       4.951  -0.299   0.000  0.00  0.00    +0.000 C 
BRANCH  44  45
ATOM     45  O   UNL     1       4.951   0.526   0.000  0.00  0.00    +0.000 OA
BRANCH  45  47
ATOM     46  O   UNL     1       3.522   0.526   0.000  0.00  0.00    +0.000 OA
ATOM     47  C   UNL     1       4.236   0.938   0.000  0.00  0.00    +0.000 C 
BRANCH  47  51
ATOM     48  O   UNL     1       2.808   3.413   0.000  0.00  0.00    +0.000 OA
ATOM     49  O   UNL     1       5.665   3.413   0.000  0.00  0.00    +0.000 OA
ATOM     50  O   UNL     1       4.236   4.238   0.000  0.00  0.00    +0.000 OA
ATOM     51  C   UNL     1       4.236   1.763   0.000  0.00  0.00    +0.000 A 
ATOM     52  C   UNL     1       4.951   2.176   0.000  0.00  0.00    +0.000 A 
ATOM     53  C   UNL     1       3.522   2.176   0.000  0.00  0.00    +0.000 A 
ATOM     54  C   UNL     1       3.522   3.001   0.000  0.00  0.00    +0.000 A 
ATOM     55  C   UNL     1       4.951   3.001   0.000  0.00  0.00    +0.000 A 
ATOM     56  C   UNL     1       4.236   3.413   0.000  0.00  0.00    +0.000 A 
ENDBRANCH  47  51
ENDBRANCH  45  47
ENDBRANCH  44  45
ENDBRANCH   6  44
TORSDOF 11
