REMARK  Name = 14162695
REMARK  5 active torsions:
REMARK  status: ('A' for Active; 'I' for Inactive)
REMARK    1  A    between atoms: O_2  and  C_17
REMARK    2  A    between atoms: O_2  and  C_19
REMARK    3  A    between atoms: O_6  and  C_18
REMARK    4  A    between atoms: C_16  and  C_18
REMARK    5  A    between atoms: C_27  and  C_29
REMARK                            x       y       z     vdW  Elec       q    Type
REMARK                         _______ _______ _______ _____ _____    ______ ____
ROOT
ATOM      1  O   UNL     1       7.402   1.101   0.000  0.00  0.00    +0.000 OA
ATOM      2  O   UNL     1       4.508  -0.555   0.000  0.00  0.00    +0.000 OA
ATOM      3  O   UNL     1       4.508   1.095   0.000  0.00  0.00    +0.000 OA
ATOM      4  O   UNL     1       5.204   2.359   0.000  0.00  0.00    +0.000 OA
ATOM      5  C   UNL     1       5.937  -0.555   0.000  0.00  0.00    +0.000 A 
ATOM      6  C   UNL     1       6.651  -0.142   0.000  0.00  0.00    +0.000 A 
ATOM      7  C   UNL     1       5.222  -0.142   0.000  0.00  0.00    +0.000 A 
ATOM      8  C   UNL     1       6.651   0.683   0.000  0.00  0.00    +0.000 A 
ATOM      9  C   UNL     1       5.937   1.095   0.000  0.00  0.00    +0.000 A 
ATOM     10  C   UNL     1       5.222   0.683   0.000  0.00  0.00    +0.000 A 
ATOM     11  C   UNL     1       5.923   1.954   0.000  0.00  0.00    +0.000 A 
ATOM     12  C   UNL     1       7.409   1.960   0.000  0.00  0.00    +0.000 A 
ATOM     13  C   UNL     1       6.664   2.390   0.000  0.00  0.00    +0.000 A 
ENDROOT
BRANCH  12  15
ATOM     14  O   UNL     1      10.273   3.599   0.000  0.00  0.00    +0.000 OA
ATOM     15  C   UNL     1       8.125   2.370   0.000  0.00  0.00    +0.000 A 
ATOM     16  C   UNL     1       8.128   3.195   0.000  0.00  0.00    +0.000 A 
ATOM     17  C   UNL     1       8.838   1.955   0.000  0.00  0.00    +0.000 A 
ATOM     18  C   UNL     1       8.844   3.605   0.000  0.00  0.00    +0.000 A 
ATOM     19  C   UNL     1       9.554   2.364   0.000  0.00  0.00    +0.000 A 
ATOM     20  C   UNL     1       9.557   3.189   0.000  0.00  0.00    +0.000 A 
ENDBRANCH  12  15
BRANCH   5  21
ATOM     21  O   UNL     1       5.937  -1.380   0.000  0.00  0.00    +0.000 OA
BRANCH  21  30
ATOM     22  O   UNL     1       4.508  -1.380   0.000  0.00  0.00    +0.000 OA
ATOM     23  O   UNL     1       4.508  -3.855   0.000  0.00  0.00    +0.000 OA
ATOM     24  O   UNL     1       3.079  -3.030   0.000  0.00  0.00    +0.000 OA
ATOM     25  O   UNL     1       5.937  -3.030   0.000  0.00  0.00    +0.000 OA
ATOM     26  C   UNL     1       4.508  -3.030   0.000  0.00  0.00    +0.000 C 
ATOM     27  C   UNL     1       3.793  -2.617   0.000  0.00  0.00    +0.000 C 
ATOM     28  C   UNL     1       5.222  -2.617   0.000  0.00  0.00    +0.000 C 
ATOM     29  C   UNL     1       3.793  -1.792   0.000  0.00  0.00    +0.000 C 
ATOM     30  C   UNL     1       5.222  -1.792   0.000  0.00  0.00    +0.000 C 
BRANCH  29  32
ATOM     31  O   UNL     1       3.079  -0.555   0.000  0.00  0.00    +0.000 OA
ATOM     32  C   UNL     1       3.079  -1.380   0.000  0.00  0.00    +0.000 C 
BRANCH  32  33
ATOM     33  O   UNL     1       2.364  -1.792   0.000  0.00  0.00    +0.000 OA
ATOM     34  C   UNL     1       1.650  -1.380   0.000  0.00  0.00    +0.000 C 
ENDBRANCH  32  33
ENDBRANCH  29  32
ENDBRANCH  21  30
ENDBRANCH   5  21
TORSDOF 5
