REMARK  Name = 16219923
REMARK  3 active torsions:
REMARK  status: ('A' for Active; 'I' for Inactive)
REMARK    1  A    between atoms: O_2  and  C_17
REMARK    2  A    between atoms: O_2  and  C_19
REMARK    3  A    between atoms: C_20  and  C_24
REMARK                            x       y       z     vdW  Elec       q    Type
REMARK                         _______ _______ _______ _____ _____    ______ ____
ROOT
ATOM      1  O   UNL     1       4.015   4.793   0.000  0.00  0.00    +0.000 OA
ATOM      2  O   UNL     1       1.872   3.556   0.000  0.00  0.00    +0.000 OA
ATOM      3  O   UNL     1       1.126   4.791   0.000  0.00  0.00    +0.000 OA
ATOM      4  O   UNL     1       2.576   7.325   0.000  0.00  0.00    +0.000 OA
ATOM      5  C   UNL     1       3.301   3.556   0.000  0.00  0.00    +0.000 A 
ATOM      6  C   UNL     1       4.015   3.968   0.000  0.00  0.00    +0.000 A 
ATOM      7  C   UNL     1       2.586   3.968   0.000  0.00  0.00    +0.000 A 
ATOM      8  C   UNL     1       2.586   4.793   0.000  0.00  0.00    +0.000 A 
ATOM      9  C   UNL     1       3.301   5.206   0.000  0.00  0.00    +0.000 A 
ATOM     10  C   UNL     1       1.836   5.211   0.000  0.00  0.00    +0.000 A 
ATOM     11  C   UNL     1       3.314   6.065   0.000  0.00  0.00    +0.000 A 
ATOM     12  C   UNL     1       1.829   6.071   0.000  0.00  0.00    +0.000 A 
ATOM     13  C   UNL     1       2.573   6.500   0.000  0.00  0.00    +0.000 A 
ENDROOT
BRANCH   6  16
ATOM     14  O   UNL     1       6.873   3.968   0.000  0.00  0.00    +0.000 OA
ATOM     15  O   UNL     1       6.873   2.318   0.000  0.00  0.00    +0.000 OA
ATOM     16  C   UNL     1       4.730   3.556   0.000  0.00  0.00    +0.000 A 
ATOM     17  C   UNL     1       5.444   3.968   0.000  0.00  0.00    +0.000 A 
ATOM     18  C   UNL     1       4.730   2.731   0.000  0.00  0.00    +0.000 A 
ATOM     19  C   UNL     1       6.159   3.556   0.000  0.00  0.00    +0.000 A 
ATOM     20  C   UNL     1       5.444   2.318   0.000  0.00  0.00    +0.000 A 
ATOM     21  C   UNL     1       6.159   2.731   0.000  0.00  0.00    +0.000 A 
ENDBRANCH   6  16
BRANCH   5  22
ATOM     22  O   UNL     1       3.301   2.731   0.000  0.00  0.00    +0.000 OA
BRANCH  22  31
ATOM     23  O   UNL     1       1.872   2.731   0.000  0.00  0.00    +0.000 OA
ATOM     24  O   UNL     1       1.872   0.256   0.000  0.00  0.00    +0.000 OA
ATOM     25  O   UNL     1       0.443   1.081   0.000  0.00  0.00    +0.000 OA
ATOM     26  O   UNL     1       3.301   1.081   0.000  0.00  0.00    +0.000 OA
ATOM     27  C   UNL     1       1.872   1.081   0.000  0.00  0.00    +0.000 C 
ATOM     28  C   UNL     1       1.157   1.493   0.000  0.00  0.00    +0.000 C 
ATOM     29  C   UNL     1       2.586   1.493   0.000  0.00  0.00    +0.000 C 
ATOM     30  C   UNL     1       1.157   2.318   0.000  0.00  0.00    +0.000 C 
ATOM     31  C   UNL     1       2.586   2.318   0.000  0.00  0.00    +0.000 C 
ATOM     32  C   UNL     1       0.443   2.731   0.000  0.00  0.00    +0.000 C 
ENDBRANCH  22  31
ENDBRANCH   5  22
TORSDOF 3
REMARK  Name = 16219923
REMARK  3 active torsions:
REMARK  status: ('A' for Active; 'I' for Inactive)
REMARK    1  A    between atoms: O_2  and  C_17
REMARK    2  A    between atoms: O_2  and  C_19
REMARK    3  A    between atoms: C_20  and  C_24
REMARK                            x       y       z     vdW  Elec       q    Type
REMARK                         _______ _______ _______ _____ _____    ______ ____
ROOT
ATOM      1  O   HOH     1       3.658   9.243   0.000  0.00  0.00    +0.000 OA
ENDROOT
TORSDOF 0
