REMARK  Name = 5488886
REMARK  5 active torsions:
REMARK  status: ('A' for Active; 'I' for Inactive)
REMARK    1  A    between atoms: O_6  and  C_26
REMARK    2  A    between atoms: O_6  and  C_35
REMARK    3  A    between atoms: C_17  and  C_20
REMARK    4  A    between atoms: C_19  and  C_24
REMARK    5  A    between atoms: C_33  and  C_37
REMARK                            x       y       z     vdW  Elec       q    Type
REMARK                         _______ _______ _______ _____ _____    ______ ____
ROOT
ATOM      1  O   UNL     1       5.693   1.718   0.000  0.00  0.00    +0.000 OA
ATOM      2  O   UNL     1       7.119   4.222   0.000  0.00  0.00    +0.000 OA
ATOM      3  O   UNL     1       4.261   4.233   0.000  0.00  0.00    +0.000 OA
ATOM      4  O   UNL     1       3.510   3.001   0.000  0.00  0.00    +0.000 OA
ATOM      5  C   UNL     1       6.399   2.987   0.000  0.00  0.00    +0.000 A 
ATOM      6  C   UNL     1       5.684   2.578   0.000  0.00  0.00    +0.000 A 
ATOM      7  C   UNL     1       6.403   3.812   0.000  0.00  0.00    +0.000 A 
ATOM      8  C   UNL     1       4.971   2.993   0.000  0.00  0.00    +0.000 A 
ATOM      9  C   UNL     1       5.690   4.228   0.000  0.00  0.00    +0.000 A 
ATOM     10  C   UNL     1       4.974   3.818   0.000  0.00  0.00    +0.000 A 
ATOM     11  C   UNL     1       4.951   1.286   0.000  0.00  0.00    +0.000 A 
ATOM     12  C   UNL     1       4.218   2.578   0.000  0.00  0.00    +0.000 A 
ATOM     13  C   UNL     1       4.208   1.718   0.000  0.00  0.00    +0.000 A 
ENDROOT
BRANCH   5  20
ATOM     14  O   UNL     1       7.828   2.982   0.000  0.00  0.00    +0.000 OA
ATOM     15  O   UNL     1       6.393   1.338   0.000  0.00  0.00    +0.000 OA
ATOM     16  O   UNL     1       7.819   0.507   0.000  0.00  0.00    +0.000 OA
ATOM     17  O   UNL     1       9.251   1.327   0.000  0.00  0.00    +0.000 OA
ATOM     18  C   UNL     1       7.109   1.747   0.000  0.00  0.00    +0.000 C 
ATOM     19  C   UNL     1       7.822   1.332   0.000  0.00  0.00    +0.000 C 
ATOM     20  C   UNL     1       7.112   2.572   0.000  0.00  0.00    +0.000 C 
ATOM     21  C   UNL     1       8.538   1.742   0.000  0.00  0.00    +0.000 C 
ATOM     22  C   UNL     1       8.541   2.567   0.000  0.00  0.00    +0.000 C 
BRANCH  22  24
ATOM     23  O   UNL     1       9.970   2.561   0.000  0.00  0.00    +0.000 OA
ATOM     24  C   UNL     1       9.257   2.977   0.000  0.00  0.00    +0.000 C 
ENDBRANCH  22  24
ENDBRANCH   5  20
BRANCH  11  26
ATOM     25  C   UNL     1       4.951  -1.189   0.000  0.00  0.00    +0.000 A 
ATOM     26  C   UNL     1       4.951   0.461   0.000  0.00  0.00    +0.000 A 
ATOM     27  C   UNL     1       5.665  -0.777   0.000  0.00  0.00    +0.000 A 
ATOM     28  C   UNL     1       4.236  -0.777   0.000  0.00  0.00    +0.000 A 
ATOM     29  C   UNL     1       5.665   0.048   0.000  0.00  0.00    +0.000 A 
ATOM     30  C   UNL     1       4.236   0.048   0.000  0.00  0.00    +0.000 A 
BRANCH  25  31
ATOM     31  O   UNL     1       4.951  -2.014   0.000  0.00  0.00    +0.000 OA
BRANCH  31  40
ATOM     32  O   UNL     1       3.522  -2.014   0.000  0.00  0.00    +0.000 OA
ATOM     33  O   UNL     1       3.522  -4.489   0.000  0.00  0.00    +0.000 OA
ATOM     34  O   UNL     1       2.093  -3.664   0.000  0.00  0.00    +0.000 OA
ATOM     35  O   UNL     1       4.951  -3.664   0.000  0.00  0.00    +0.000 OA
ATOM     36  C   UNL     1       3.522  -3.664   0.000  0.00  0.00    +0.000 C 
ATOM     37  C   UNL     1       2.808  -3.252   0.000  0.00  0.00    +0.000 C 
ATOM     38  C   UNL     1       4.236  -3.252   0.000  0.00  0.00    +0.000 C 
ATOM     39  C   UNL     1       2.808  -2.426   0.000  0.00  0.00    +0.000 C 
ATOM     40  C   UNL     1       4.236  -2.426   0.000  0.00  0.00    +0.000 C 
ATOM     41  C   UNL     1       2.093  -2.014   0.000  0.00  0.00    +0.000 C 
ENDBRANCH  31  40
ENDBRANCH  25  31
ENDBRANCH  11  26
TORSDOF 5
