REMARK  Name = 71307582
REMARK  8 active torsions:
REMARK  status: ('A' for Active; 'I' for Inactive)
REMARK    1  A    between atoms: O_2  and  C_20
REMARK    2  A    between atoms: O_2  and  C_25
REMARK    3  A    between atoms: O_13  and  C_38
REMARK    4  A    between atoms: O_13  and  C_46
REMARK    5  A    between atoms: C_22  and  C_26
REMARK    6  A    between atoms: C_24  and  C_29
REMARK    7  A    between atoms: C_37  and  C_42
REMARK    8  A    between atoms: C_44  and  C_47
REMARK                            x       y       z     vdW  Elec       q    Type
REMARK                         _______ _______ _______ _____ _____    ______ ____
ROOT
ATOM      1  O   UNL     1       4.975   2.710   0.000  0.00  0.00    +0.000 OA
ATOM      2  O   UNL     1       7.833   2.699   0.000  0.00  0.00    +0.000 OA
ATOM      3  O   UNL     1       6.408   0.196   0.000  0.00  0.00    +0.000 OA
ATOM      4  O   UNL     1       4.225   1.478   0.000  0.00  0.00    +0.000 OA
ATOM      5  C   UNL     1       6.404   2.705   0.000  0.00  0.00    +0.000 A 
ATOM      6  C   UNL     1       5.688   2.295   0.000  0.00  0.00    +0.000 A 
ATOM      7  C   UNL     1       7.117   2.289   0.000  0.00  0.00    +0.000 A 
ATOM      8  C   UNL     1       5.685   1.470   0.000  0.00  0.00    +0.000 A 
ATOM      9  C   UNL     1       7.114   1.464   0.000  0.00  0.00    +0.000 A 
ATOM     10  C   UNL     1       6.398   1.055   0.000  0.00  0.00    +0.000 A 
ATOM     11  C   UNL     1       4.933   1.055   0.000  0.00  0.00    +0.000 A 
ATOM     12  C   UNL     1       5.665  -0.237   0.000  0.00  0.00    +0.000 A 
ATOM     13  C   UNL     1       4.923   0.196   0.000  0.00  0.00    +0.000 A 
ENDROOT
BRANCH   5  19
ATOM     14  O   UNL     1       5.695   3.945   0.000  0.00  0.00    +0.000 OA
ATOM     15  O   UNL     1       7.843   5.174   0.000  0.00  0.00    +0.000 OA
ATOM     16  O   UNL     1       6.417   6.005   0.000  0.00  0.00    +0.000 OA
ATOM     17  C   UNL     1       7.123   3.939   0.000  0.00  0.00    +0.000 C 
ATOM     18  C   UNL     1       7.127   4.764   0.000  0.00  0.00    +0.000 C 
ATOM     19  C   UNL     1       6.407   3.530   0.000  0.00  0.00    +0.000 C 
ATOM     20  C   UNL     1       6.414   5.180   0.000  0.00  0.00    +0.000 C 
ATOM     21  C   UNL     1       5.698   4.770   0.000  0.00  0.00    +0.000 C 
BRANCH  21  23
ATOM     22  O   UNL     1       4.988   6.010   0.000  0.00  0.00    +0.000 OA
ATOM     23  C   UNL     1       4.985   5.185   0.000  0.00  0.00    +0.000 C 
ENDBRANCH  21  23
BRANCH  17  24
ATOM     24  O   UNL     1       7.836   3.524   0.000  0.00  0.00    +0.000 OA
BRANCH  24  29
ATOM     25  O   UNL     1       8.556   4.759   0.000  0.00  0.00    +0.000 OA
ATOM     26  O   UNL     1       9.262   2.694   0.000  0.00  0.00    +0.000 OA
ATOM     27  O   UNL     1      10.694   3.513   0.000  0.00  0.00    +0.000 OA
ATOM     28  O   UNL     1      10.701   5.163   0.000  0.00  0.00    +0.000 OA
ATOM     29  C   UNL     1       8.552   3.934   0.000  0.00  0.00    +0.000 C 
ATOM     30  C   UNL     1       9.265   3.519   0.000  0.00  0.00    +0.000 C 
ATOM     31  C   UNL     1       9.981   3.929   0.000  0.00  0.00    +0.000 C 
ATOM     32  C   UNL     1       9.985   4.753   0.000  0.00  0.00    +0.000 C 
ATOM     33  C   UNL     1       9.272   5.169   0.000  0.00  0.00    +0.000 C 
ENDBRANCH  24  29
ENDBRANCH  17  24
ENDBRANCH   5  19
BRANCH  12  35
ATOM     34  C   UNL     1       5.665  -2.712   0.000  0.00  0.00    +0.000 A 
ATOM     35  C   UNL     1       5.665  -1.062   0.000  0.00  0.00    +0.000 A 
ATOM     36  C   UNL     1       6.380  -2.300   0.000  0.00  0.00    +0.000 A 
ATOM     37  C   UNL     1       4.951  -2.300   0.000  0.00  0.00    +0.000 A 
ATOM     38  C   UNL     1       6.380  -1.474   0.000  0.00  0.00    +0.000 A 
ATOM     39  C   UNL     1       4.951  -1.474   0.000  0.00  0.00    +0.000 A 
BRANCH  34  40
ATOM     40  O   UNL     1       5.665  -3.537   0.000  0.00  0.00    +0.000 OA
BRANCH  40  49
ATOM     41  O   UNL     1       4.236  -3.537   0.000  0.00  0.00    +0.000 OA
ATOM     42  O   UNL     1       4.236  -6.012   0.000  0.00  0.00    +0.000 OA
ATOM     43  O   UNL     1       2.808  -5.187   0.000  0.00  0.00    +0.000 OA
ATOM     44  O   UNL     1       5.665  -5.187   0.000  0.00  0.00    +0.000 OA
ATOM     45  C   UNL     1       4.236  -5.187   0.000  0.00  0.00    +0.000 C 
ATOM     46  C   UNL     1       3.522  -4.774   0.000  0.00  0.00    +0.000 C 
ATOM     47  C   UNL     1       4.951  -4.774   0.000  0.00  0.00    +0.000 C 
ATOM     48  C   UNL     1       3.522  -3.950   0.000  0.00  0.00    +0.000 C 
ATOM     49  C   UNL     1       4.951  -3.950   0.000  0.00  0.00    +0.000 C 
BRANCH  48  51
ATOM     50  O   UNL     1       2.093  -3.950   0.000  0.00  0.00    +0.000 OA
ATOM     51  C   UNL     1       2.808  -3.537   0.000  0.00  0.00    +0.000 C 
ENDBRANCH  48  51
ENDBRANCH  40  49
ENDBRANCH  34  40
ENDBRANCH  12  35
TORSDOF 8
