REMARK  Name = 102594479
REMARK  6 active torsions:
REMARK  status: ('A' for Active; 'I' for Inactive)
REMARK    1  A    between atoms: O_1  and  C_17
REMARK    2  A    between atoms: O_1  and  C_22
REMARK    3  A    between atoms: C_19  and  C_27
REMARK    4  A    between atoms: C_21  and  C_28
REMARK    5  A    between atoms: C_26  and  C_29
REMARK    6  A    between atoms: C_36  and  C_38
REMARK                            x       y       z     vdW  Elec       q    Type
REMARK                         _______ _______ _______ _____ _____    ______ ____
ROOT
ATOM      1  O   UNL     1       6.380   0.383   0.000  0.00  0.00    +0.000 OA
ATOM      2  O   UNL     1       4.236  -0.854   0.000  0.00  0.00    +0.000 OA
ATOM      3  O   UNL     1       4.236   0.796   0.000  0.00  0.00    +0.000 OA
ATOM      4  C   UNL     1       5.665  -0.854   0.000  0.00  0.00    +0.000 C 
ATOM      5  C   UNL     1       4.951  -0.442   0.000  0.00  0.00    +0.000 C 
ATOM      6  C   UNL     1       6.380  -0.442   0.000  0.00  0.00    +0.000 C 
ATOM      7  C   UNL     1       4.951   0.383   0.000  0.00  0.00    +0.000 C 
ATOM      8  C   UNL     1       5.665   0.796   0.000  0.00  0.00    +0.000 C 
ENDROOT
BRANCH   6  13
ATOM      9  O   UNL     1       7.795   0.417   0.000  0.00  0.00    +0.000 OA
ATOM     10  O   UNL     1       6.380  -2.092   0.000  0.00  0.00    +0.000 OA
ATOM     11  O   UNL     1       9.238  -2.092   0.000  0.00  0.00    +0.000 OA
ATOM     12  O   UNL     1       9.984  -0.857   0.000  0.00  0.00    +0.000 OA
ATOM     13  C   UNL     1       7.094  -0.854   0.000  0.00  0.00    +0.000 A 
ATOM     14  C   UNL     1       7.809  -0.442   0.000  0.00  0.00    +0.000 A 
ATOM     15  C   UNL     1       7.094  -1.679   0.000  0.00  0.00    +0.000 A 
ATOM     16  C   UNL     1       8.523  -0.854   0.000  0.00  0.00    +0.000 A 
ATOM     17  C   UNL     1       7.809  -2.092   0.000  0.00  0.00    +0.000 A 
ATOM     18  C   UNL     1       8.523  -1.679   0.000  0.00  0.00    +0.000 A 
ATOM     19  C   UNL     1       9.274  -0.436   0.000  0.00  0.00    +0.000 A 
ATOM     20  C   UNL     1       8.536   0.853   0.000  0.00  0.00    +0.000 A 
ATOM     21  C   UNL     1       9.281   0.423   0.000  0.00  0.00    +0.000 A 
BRANCH  20  24
ATOM     22  O   UNL     1       7.098   3.322   0.000  0.00  0.00    +0.000 OA
ATOM     23  O   UNL     1       8.524   4.153   0.000  0.00  0.00    +0.000 OA
ATOM     24  C   UNL     1       8.533   1.678   0.000  0.00  0.00    +0.000 A 
ATOM     25  C   UNL     1       7.817   2.087   0.000  0.00  0.00    +0.000 A 
ATOM     26  C   UNL     1       9.246   2.093   0.000  0.00  0.00    +0.000 A 
ATOM     27  C   UNL     1       7.814   2.913   0.000  0.00  0.00    +0.000 A 
ATOM     28  C   UNL     1       9.243   2.918   0.000  0.00  0.00    +0.000 A 
ATOM     29  C   UNL     1       8.527   3.328   0.000  0.00  0.00    +0.000 A 
ENDBRANCH  20  24
ENDBRANCH   6  13
BRANCH   8  31
ATOM     30  O   UNL     1       4.951   2.033   0.000  0.00  0.00    +0.000 OA
ATOM     31  C   UNL     1       5.665   1.621   0.000  0.00  0.00    +0.000 C 
ENDBRANCH   8  31
BRANCH   4  32
ATOM     32  O   UNL     1       5.665  -1.679   0.000  0.00  0.00    +0.000 OA
BRANCH  32  37
ATOM     33  O   UNL     1       4.236  -1.679   0.000  0.00  0.00    +0.000 OA
ATOM     34  O   UNL     1       5.665  -3.329   0.000  0.00  0.00    +0.000 OA
ATOM     35  O   UNL     1       4.236  -4.154   0.000  0.00  0.00    +0.000 OA
ATOM     36  O   UNL     1       2.808  -3.329   0.000  0.00  0.00    +0.000 OA
ATOM     37  C   UNL     1       4.951  -2.092   0.000  0.00  0.00    +0.000 C 
ATOM     38  C   UNL     1       4.951  -2.917   0.000  0.00  0.00    +0.000 C 
ATOM     39  C   UNL     1       4.236  -3.329   0.000  0.00  0.00    +0.000 C 
ATOM     40  C   UNL     1       3.522  -2.917   0.000  0.00  0.00    +0.000 C 
ATOM     41  C   UNL     1       3.522  -2.092   0.000  0.00  0.00    +0.000 C 
BRANCH  41  43
ATOM     42  O   UNL     1       2.093  -2.092   0.000  0.00  0.00    +0.000 OA
ATOM     43  C   UNL     1       2.808  -1.679   0.000  0.00  0.00    +0.000 C 
ENDBRANCH  41  43
ENDBRANCH  32  37
ENDBRANCH   4  32
TORSDOF 6
