REMARK  Name = 124578359
REMARK  7 active torsions:
REMARK  status: ('A' for Active; 'I' for Inactive)
REMARK    1  A    between atoms: O_4  and  C_20
REMARK    2  A    between atoms: O_4  and  C_26
REMARK    3  A    between atoms: O_6  and  C_22
REMARK    4  A    between atoms: O_6  and  C_27
REMARK    5  A    between atoms: C_14  and  C_23
REMARK    6  A    between atoms: C_19  and  C_24
REMARK    7  A    between atoms: C_25  and  C_29
REMARK                            x       y       z     vdW  Elec       q    Type
REMARK                         _______ _______ _______ _____ _____    ______ ____
ROOT
ATOM      1  O   UNL     1       6.380   0.043   0.000  0.00  0.00    +0.000 OA
ATOM      2  O   UNL     1       4.236   1.281   0.000  0.00  0.00    +0.000 OA
ATOM      3  C   UNL     1       5.665  -0.369   0.000  0.00  0.00    +0.000 C 
ATOM      4  C   UNL     1       7.137   2.146   0.000  0.00  0.00    +0.000 A 
ATOM      5  C   UNL     1       4.951   0.043   0.000  0.00  0.00    +0.000 C 
ATOM      6  C   UNL     1       6.380   0.868   0.000  0.00  0.00    +0.000 A 
ATOM      7  C   UNL     1       5.665   1.281   0.000  0.00  0.00    +0.000 A 
ATOM      8  C   UNL     1       7.131   1.286   0.000  0.00  0.00    +0.000 A 
ATOM      9  C   UNL     1       4.951   0.868   0.000  0.00  0.00    +0.000 C 
ATOM     10  C   UNL     1       6.393   2.575   0.000  0.00  0.00    +0.000 A 
ATOM     11  C   UNL     1       5.652   2.140   0.000  0.00  0.00    +0.000 A 
ENDROOT
BRANCH   3  13
ATOM     12  C   UNL     1       5.665  -2.844   0.000  0.00  0.00    +0.000 A 
ATOM     13  C   UNL     1       5.665  -1.194   0.000  0.00  0.00    +0.000 A 
ATOM     14  C   UNL     1       6.380  -2.432   0.000  0.00  0.00    +0.000 A 
ATOM     15  C   UNL     1       4.951  -2.432   0.000  0.00  0.00    +0.000 A 
ATOM     16  C   UNL     1       6.380  -1.607   0.000  0.00  0.00    +0.000 A 
ATOM     17  C   UNL     1       4.951  -1.607   0.000  0.00  0.00    +0.000 A 
BRANCH  12  18
ATOM     18  O   UNL     1       5.665  -3.669   0.000  0.00  0.00    +0.000 OA
BRANCH  18  27
ATOM     19  O   UNL     1       4.236  -3.669   0.000  0.00  0.00    +0.000 OA
ATOM     20  O   UNL     1       4.236  -6.144   0.000  0.00  0.00    +0.000 OA
ATOM     21  O   UNL     1       2.808  -5.319   0.000  0.00  0.00    +0.000 OA
ATOM     22  O   UNL     1       5.665  -5.319   0.000  0.00  0.00    +0.000 OA
ATOM     23  C   UNL     1       4.236  -5.319   0.000  0.00  0.00    +0.000 C 
ATOM     24  C   UNL     1       3.522  -4.907   0.000  0.00  0.00    +0.000 C 
ATOM     25  C   UNL     1       4.951  -4.907   0.000  0.00  0.00    +0.000 C 
ATOM     26  C   UNL     1       3.522  -4.082   0.000  0.00  0.00    +0.000 C 
ATOM     27  C   UNL     1       4.951  -4.082   0.000  0.00  0.00    +0.000 C 
BRANCH  26  29
ATOM     28  O   UNL     1       2.093  -4.082   0.000  0.00  0.00    +0.000 OA
ATOM     29  C   UNL     1       2.808  -3.669   0.000  0.00  0.00    +0.000 C 
ENDBRANCH  26  29
ENDBRANCH  18  27
ENDBRANCH  12  18
ENDBRANCH   3  13
BRANCH   4  30
ATOM     30  O   UNL     1       7.853   2.555   0.000  0.00  0.00    +0.000 OA
BRANCH  30  36
ATOM     31  O   UNL     1       7.191   3.868   0.000  0.00  0.00    +0.000 OA
ATOM     32  O   UNL     1       9.059   4.900   0.000  0.00  0.00    +0.000 OA
ATOM     33  O   UNL     1       9.309   3.605   0.000  0.00  0.00    +0.000 OA
ATOM     34  C   UNL     1       8.274   4.648   0.000  0.00  0.00    +0.000 C 
ATOM     35  C   UNL     1       8.526   3.863   0.000  0.00  0.00    +0.000 C 
ATOM     36  C   UNL     1       7.856   3.380   0.000  0.00  0.00    +0.000 C 
ATOM     37  C   UNL     1       7.449   4.652   0.000  0.00  0.00    +0.000 C 
BRANCH  34  39
ATOM     38  O   UNL     1       7.564   5.889   0.000  0.00  0.00    +0.000 OA
ATOM     39  C   UNL     1       8.277   5.473   0.000  0.00  0.00    +0.000 C 
ENDBRANCH  34  39
ENDBRANCH  30  36
ENDBRANCH   4  30
TORSDOF 7
