REMARK  Name = 13942385
REMARK  10 active torsions:
REMARK  status: ('A' for Active; 'I' for Inactive)
REMARK    1  A    between atoms: O_2  and  C_24
REMARK    2  A    between atoms: O_2  and  C_27
REMARK    3  A    between atoms: O_4  and  C_20
REMARK    4  A    between atoms: O_4  and  C_32
REMARK    5  A    between atoms: O_6  and  C_23
REMARK    6  A    between atoms: O_6  and  C_31
REMARK    7  A    between atoms: C_19  and  C_27
REMARK    8  A    between atoms: C_32  and  C_35
REMARK    9  A    between atoms: C_33  and  C_37
REMARK   10  A    between atoms: C_40  and  C_46
REMARK                            x       y       z     vdW  Elec       q    Type
REMARK                         _______ _______ _______ _____ _____    ______ ____
ROOT
ATOM      1  O   UNL     1       5.721   1.031   0.000  0.00  0.00    +0.000 OA
ATOM      2  O   UNL     1       7.864  -0.206   0.000  0.00  0.00    +0.000 OA
ATOM      3  O   UNL     1       7.864   1.444   0.000  0.00  0.00    +0.000 OA
ATOM      4  C   UNL     1       5.721   0.206   0.000  0.00  0.00    +0.000 C 
ATOM      5  C   UNL     1       6.435  -0.206   0.000  0.00  0.00    +0.000 C 
ATOM      6  C   UNL     1       7.150   0.206   0.000  0.00  0.00    +0.000 C 
ATOM      7  C   UNL     1       7.150   1.031   0.000  0.00  0.00    +0.000 C 
ATOM      8  C   UNL     1       6.435   1.444   0.000  0.00  0.00    +0.000 C 
ENDROOT
BRANCH   5   9
ATOM      9  O   UNL     1       6.435  -1.031   0.000  0.00  0.00    +0.000 OA
BRANCH   9  11
ATOM     10  O   UNL     1       7.864  -1.031   0.000  0.00  0.00    +0.000 OA
ATOM     11  C   UNL     1       7.150  -1.444   0.000  0.00  0.00    +0.000 C 
BRANCH  11  12
ATOM     12  C   UNL     1       7.150  -2.269   0.000  0.00  0.00    +0.000 C 
ATOM     13  C   UNL     1       7.864  -2.681   0.000  0.00  0.00    +0.000 C 
BRANCH  13  15
ATOM     14  O   UNL     1       7.864  -5.981   0.000  0.00  0.00    +0.000 OA
ATOM     15  C   UNL     1       7.864  -3.506   0.000  0.00  0.00    +0.000 A 
ATOM     16  C   UNL     1       7.150  -3.919   0.000  0.00  0.00    +0.000 A 
ATOM     17  C   UNL     1       8.579  -3.919   0.000  0.00  0.00    +0.000 A 
ATOM     18  C   UNL     1       7.150  -4.744   0.000  0.00  0.00    +0.000 A 
ATOM     19  C   UNL     1       8.579  -4.744   0.000  0.00  0.00    +0.000 A 
ATOM     20  C   UNL     1       7.864  -5.156   0.000  0.00  0.00    +0.000 A 
ENDBRANCH  13  15
ENDBRANCH  11  12
ENDBRANCH   9  11
ENDBRANCH   5   9
BRANCH   8  21
ATOM     21  O   UNL     1       6.435   2.269   0.000  0.00  0.00    +0.000 OA
BRANCH  21  26
ATOM     22  O   UNL     1       5.006   3.919   0.000  0.00  0.00    +0.000 OA
ATOM     23  O   UNL     1       5.006   1.444   0.000  0.00  0.00    +0.000 OA
ATOM     24  O   UNL     1       3.564   1.415   0.000  0.00  0.00    +0.000 OA
ATOM     25  O   UNL     1       2.094   3.939   0.000  0.00  0.00    +0.000 OA
ATOM     26  C   UNL     1       5.721   2.681   0.000  0.00  0.00    +0.000 A 
ATOM     27  C   UNL     1       5.721   3.506   0.000  0.00  0.00    +0.000 A 
ATOM     28  C   UNL     1       5.006   2.269   0.000  0.00  0.00    +0.000 A 
ATOM     29  C   UNL     1       4.292   2.681   0.000  0.00  0.00    +0.000 A 
ATOM     30  C   UNL     1       4.292   3.506   0.000  0.00  0.00    +0.000 A 
ATOM     31  C   UNL     1       3.554   2.240   0.000  0.00  0.00    +0.000 A 
ATOM     32  C   UNL     1       3.554   3.947   0.000  0.00  0.00    +0.000 A 
ATOM     33  C   UNL     1       2.807   2.664   0.000  0.00  0.00    +0.000 A 
ATOM     34  C   UNL     1       2.807   3.523   0.000  0.00  0.00    +0.000 A 
BRANCH  27  37
ATOM     35  O   UNL     1       7.150   5.981   0.000  0.00  0.00    +0.000 OA
ATOM     36  O   UNL     1       8.579   5.156   0.000  0.00  0.00    +0.000 OA
ATOM     37  C   UNL     1       6.435   3.919   0.000  0.00  0.00    +0.000 A 
ATOM     38  C   UNL     1       6.435   4.744   0.000  0.00  0.00    +0.000 A 
ATOM     39  C   UNL     1       7.150   3.506   0.000  0.00  0.00    +0.000 A 
ATOM     40  C   UNL     1       7.150   5.156   0.000  0.00  0.00    +0.000 A 
ATOM     41  C   UNL     1       7.864   3.919   0.000  0.00  0.00    +0.000 A 
ATOM     42  C   UNL     1       7.864   4.744   0.000  0.00  0.00    +0.000 A 
ENDBRANCH  27  37
ENDBRANCH  21  26
ENDBRANCH   8  21
BRANCH   4  43
ATOM     43  C   UNL     1       5.006  -0.206   0.000  0.00  0.00    +0.000 C 
BRANCH  43  44
ATOM     44  O   UNL     1       5.006  -1.031   0.000  0.00  0.00    +0.000 OA
BRANCH  44  49
ATOM     45  O   UNL     1       3.577  -1.031   0.000  0.00  0.00    +0.000 OA
ATOM     46  O   UNL     1       5.006  -2.681   0.000  0.00  0.00    +0.000 OA
ATOM     47  O   UNL     1       3.577  -3.506   0.000  0.00  0.00    +0.000 OA
ATOM     48  O   UNL     1       2.148  -2.681   0.000  0.00  0.00    +0.000 OA
ATOM     49  C   UNL     1       4.292  -1.444   0.000  0.00  0.00    +0.000 C 
ATOM     50  C   UNL     1       4.292  -2.269   0.000  0.00  0.00    +0.000 C 
ATOM     51  C   UNL     1       3.577  -2.681   0.000  0.00  0.00    +0.000 C 
ATOM     52  C   UNL     1       2.863  -2.269   0.000  0.00  0.00    +0.000 C 
ATOM     53  C   UNL     1       2.863  -1.444   0.000  0.00  0.00    +0.000 C 
ATOM     54  C   UNL     1       2.148  -1.031   0.000  0.00  0.00    +0.000 C 
ENDBRANCH  44  49
ENDBRANCH  43  44
ENDBRANCH   4  43
TORSDOF 10
