REMARK  Name = 21674154
REMARK  7 active torsions:
REMARK  status: ('A' for Active; 'I' for Inactive)
REMARK    1  A    between atoms: O_2  and  C_19
REMARK    2  A    between atoms: O_2  and  C_21
REMARK    3  A    between atoms: O_10  and  C_36
REMARK    4  A    between atoms: O_11  and  C_37
REMARK    5  A    between atoms: C_18  and  C_20
REMARK    6  A    between atoms: C_23  and  C_28
REMARK    7  A    between atoms: C_29  and  C_35
REMARK                            x       y       z     vdW  Elec       q    Type
REMARK                         _______ _______ _______ _____ _____    ______ ____
ROOT
ATOM      1  O   UNL     1       8.018   0.580   0.000  0.00  0.00    +0.000 OA
ATOM      2  O   UNL     1       5.313   1.546   0.000  0.00  0.00    +0.000 OA
ATOM      3  O   UNL     1       7.532   3.451   0.000  0.00  0.00    +0.000 OA
ATOM      4  C   UNL     1       6.924  -0.339   0.000  0.00  0.00    +0.000 A 
ATOM      5  C   UNL     1       6.393   0.293   0.000  0.00  0.00    +0.000 A 
ATOM      6  C   UNL     1       7.736  -0.195   0.000  0.00  0.00    +0.000 A 
ATOM      7  C   UNL     1       6.675   1.069   0.000  0.00  0.00    +0.000 A 
ATOM      8  C   UNL     1       7.488   1.212   0.000  0.00  0.00    +0.000 A 
ATOM      9  C   UNL     1       5.588   0.150   0.000  0.00  0.00    +0.000 A 
ATOM     10  C   UNL     1       6.113   1.718   0.000  0.00  0.00    +0.000 A 
ATOM     11  C   UNL     1       5.053   0.770   0.000  0.00  0.00    +0.000 A 
ATOM     12  C   UNL     1       7.794   2.015   0.000  0.00  0.00    +0.000 A 
ATOM     13  C   UNL     1       6.401   2.528   0.000  0.00  0.00    +0.000 A 
ATOM     14  C   UNL     1       7.247   2.677   0.000  0.00  0.00    +0.000 A 
ENDROOT
BRANCH  11  17
ATOM     15  O   UNL     1       2.349   1.694   0.000  0.00  0.00    +0.000 OA
ATOM     16  O   UNL     1       1.815   0.133   0.000  0.00  0.00    +0.000 OA
ATOM     17  C   UNL     1       4.244   0.611   0.000  0.00  0.00    +0.000 A 
ATOM     18  C   UNL     1       3.701   1.232   0.000  0.00  0.00    +0.000 A 
ATOM     19  C   UNL     1       3.977  -0.170   0.000  0.00  0.00    +0.000 A 
ATOM     20  C   UNL     1       2.892   1.073   0.000  0.00  0.00    +0.000 A 
ATOM     21  C   UNL     1       3.168  -0.329   0.000  0.00  0.00    +0.000 A 
ATOM     22  C   UNL     1       2.625   0.292   0.000  0.00  0.00    +0.000 A 
ENDBRANCH  11  17
BRANCH   6  24
ATOM     23  O   UNL     1       9.857  -2.723   0.000  0.00  0.00    +0.000 OA
ATOM     24  C   UNL     1       8.266  -0.827   0.000  0.00  0.00    +0.000 A 
ATOM     25  C   UNL     1       7.984  -1.603   0.000  0.00  0.00    +0.000 A 
ATOM     26  C   UNL     1       9.079  -0.684   0.000  0.00  0.00    +0.000 A 
ATOM     27  C   UNL     1       9.609  -1.316   0.000  0.00  0.00    +0.000 A 
ATOM     28  C   UNL     1       8.514  -2.235   0.000  0.00  0.00    +0.000 A 
ATOM     29  C   UNL     1       9.327  -2.091   0.000  0.00  0.00    +0.000 A 
BRANCH  27  30
ATOM     30  O   UNL     1      10.422  -1.173   0.000  0.00  0.00    +0.000 OA
ATOM     31  C   UNL     1      10.704  -0.398   0.000  0.00  0.00    +0.000 C 
ENDBRANCH  27  30
BRANCH  28  32
ATOM     32  O   UNL     1       8.232  -3.010   0.000  0.00  0.00    +0.000 OA
ATOM     33  C   UNL     1       7.420  -3.153   0.000  0.00  0.00    +0.000 C 
ENDBRANCH  28  32
ENDBRANCH   6  24
BRANCH   4  34
ATOM     34  O   UNL     1       6.641  -1.114   0.000  0.00  0.00    +0.000 OA
BRANCH  34  43
ATOM     35  O   UNL     1       5.212  -1.114   0.000  0.00  0.00    +0.000 OA
ATOM     36  O   UNL     1       5.212  -3.589   0.000  0.00  0.00    +0.000 OA
ATOM     37  O   UNL     1       3.784  -2.764   0.000  0.00  0.00    +0.000 OA
ATOM     38  O   UNL     1       6.641  -2.764   0.000  0.00  0.00    +0.000 OA
ATOM     39  C   UNL     1       5.212  -2.764   0.000  0.00  0.00    +0.000 C 
ATOM     40  C   UNL     1       4.498  -2.351   0.000  0.00  0.00    +0.000 C 
ATOM     41  C   UNL     1       5.927  -2.351   0.000  0.00  0.00    +0.000 C 
ATOM     42  C   UNL     1       4.498  -1.526   0.000  0.00  0.00    +0.000 C 
ATOM     43  C   UNL     1       5.927  -1.526   0.000  0.00  0.00    +0.000 C 
BRANCH  42  45
ATOM     44  O   UNL     1       3.069  -1.526   0.000  0.00  0.00    +0.000 OA
ATOM     45  C   UNL     1       3.784  -1.114   0.000  0.00  0.00    +0.000 C 
ENDBRANCH  42  45
ENDBRANCH  34  43
ENDBRANCH   4  34
TORSDOF 7
