REMARK  Name = 160711
REMARK  3 active torsions:
REMARK  status: ('A' for Active; 'I' for Inactive)
REMARK    1  A    between atoms: C_12  and  C_16
REMARK    2  A    between atoms: C_15  and  C_17
REMARK    3  A    between atoms: C_22  and  C_26
REMARK                            x       y       z     vdW  Elec       q    Type
REMARK                         _______ _______ _______ _____ _____    ______ ____
ROOT
ATOM      1  O   UNL     1       7.832  -1.380   0.000  0.00  0.00    +0.000 OA
ATOM      2  O   UNL     1       6.380   1.124   0.000  0.00  0.00    +0.000 OA
ATOM      3  O   UNL     1       4.951  -1.351   0.000  0.00  0.00    +0.000 OA
ATOM      4  O   UNL     1       7.822   1.152   0.000  0.00  0.00    +0.000 OA
ATOM      5  C   UNL     1       5.665  -0.114   0.000  0.00  0.00    +0.000 A 
ATOM      6  C   UNL     1       6.380   0.299   0.000  0.00  0.00    +0.000 A 
ATOM      7  C   UNL     1       5.665  -0.939   0.000  0.00  0.00    +0.000 A 
ATOM      8  C   UNL     1       7.094  -0.114   0.000  0.00  0.00    +0.000 A 
ATOM      9  C   UNL     1       7.094  -0.939   0.000  0.00  0.00    +0.000 A 
ATOM     10  C   UNL     1       8.579  -0.956   0.000  0.00  0.00    +0.000 C 
ATOM     11  C   UNL     1       6.380  -1.351   0.000  0.00  0.00    +0.000 A 
ATOM     12  C   UNL     1       8.579  -0.097   0.000  0.00  0.00    +0.000 C 
ATOM     13  C   UNL     1       7.832   0.327   0.000  0.00  0.00    +0.000 C 
ENDROOT
BRANCH   5  19
ATOM     14  O   UNL     1       4.236  -0.114   0.000  0.00  0.00    +0.000 OA
ATOM     15  O   UNL     1       5.665   1.536   0.000  0.00  0.00    +0.000 OA
ATOM     16  O   UNL     1       4.236   2.361   0.000  0.00  0.00    +0.000 OA
ATOM     17  O   UNL     1       2.808   1.536   0.000  0.00  0.00    +0.000 OA
ATOM     18  C   UNL     1       4.951   1.124   0.000  0.00  0.00    +0.000 C 
ATOM     19  C   UNL     1       4.951   0.299   0.000  0.00  0.00    +0.000 C 
ATOM     20  C   UNL     1       4.236   1.536   0.000  0.00  0.00    +0.000 C 
ATOM     21  C   UNL     1       3.522   1.124   0.000  0.00  0.00    +0.000 C 
ATOM     22  C   UNL     1       3.522   0.299   0.000  0.00  0.00    +0.000 C 
BRANCH  22  24
ATOM     23  O   UNL     1       2.093   0.299   0.000  0.00  0.00    +0.000 OA
ATOM     24  C   UNL     1       2.808  -0.114   0.000  0.00  0.00    +0.000 C 
ENDBRANCH  22  24
ENDBRANCH   5  19
BRANCH  10  26
ATOM     25  O   UNL     1      11.431  -2.617   0.000  0.00  0.00    +0.000 OA
ATOM     26  C   UNL     1       9.292  -1.371   0.000  0.00  0.00    +0.000 A 
ATOM     27  C   UNL     1      10.008  -0.962   0.000  0.00  0.00    +0.000 A 
ATOM     28  C   UNL     1       9.289  -2.196   0.000  0.00  0.00    +0.000 A 
ATOM     29  C   UNL     1      10.721  -1.377   0.000  0.00  0.00    +0.000 A 
ATOM     30  C   UNL     1      10.002  -2.611   0.000  0.00  0.00    +0.000 A 
ATOM     31  C   UNL     1      10.718  -2.202   0.000  0.00  0.00    +0.000 A 
ENDBRANCH  10  26
TORSDOF 3
