REMARK  Name = 14704648
REMARK  4 active torsions:
REMARK  status: ('A' for Active; 'I' for Inactive)
REMARK    1  A    between atoms: O_5  and  C_13
REMARK    2  A    between atoms: O_7  and  C_17
REMARK    3  A    between atoms: O_8  and  C_24
REMARK    4  A    between atoms: C_12  and  C_14
REMARK                            x       y       z     vdW  Elec       q    Type
REMARK                         _______ _______ _______ _____ _____    ______ ____
ROOT
ATOM      1  O   UNL     1       5.800  -0.225   0.000  0.00  0.00    +0.000 OA
ATOM      2  O   UNL     1       8.747   1.293   0.000  0.00  0.00    +0.000 OA
ATOM      3  O   UNL     1       8.747  -0.035   0.000  0.00  0.00    +0.000 OA
ATOM      4  O   UNL     1       5.809   2.307   0.000  0.00  0.00    +0.000 OA
ATOM      5  C   UNL     1       6.537   1.041   0.000  0.00  0.00    +0.000 A 
ATOM      6  C   UNL     1       6.537   0.216   0.000  0.00  0.00    +0.000 A 
ATOM      7  C   UNL     1       5.052   0.199   0.000  0.00  0.00    +0.000 A 
ATOM      8  C   UNL     1       7.252   1.454   0.000  0.00  0.00    +0.000 A 
ATOM      9  C   UNL     1       7.966   1.041   0.000  0.00  0.00    +0.000 A 
ATOM     10  C   UNL     1       7.966   0.216   0.000  0.00  0.00    +0.000 A 
ATOM     11  C   UNL     1       5.052   1.058   0.000  0.00  0.00    +0.000 A 
ATOM     12  C   UNL     1       5.800   1.482   0.000  0.00  0.00    +0.000 A 
ATOM     13  C   UNL     1       7.252  -0.196   0.000  0.00  0.00    +0.000 A 
ATOM     14  C   UNL     1       9.228   0.629   0.000  0.00  0.00    +0.000 C 
ENDROOT
BRANCH   7  17
ATOM     15  O   UNL     1       2.129   0.027   0.000  0.00  0.00    +0.000 OA
ATOM     16  O   UNL     1       2.134  -1.301   0.000  0.00  0.00    +0.000 OA
ATOM     17  C   UNL     1       4.339  -0.216   0.000  0.00  0.00    +0.000 A 
ATOM     18  C   UNL     1       3.623   0.194   0.000  0.00  0.00    +0.000 A 
ATOM     19  C   UNL     1       2.910  -0.222   0.000  0.00  0.00    +0.000 A 
ATOM     20  C   UNL     1       2.914  -1.047   0.000  0.00  0.00    +0.000 A 
ATOM     21  C   UNL     1       4.343  -1.041   0.000  0.00  0.00    +0.000 A 
ATOM     22  C   UNL     1       3.630  -1.456   0.000  0.00  0.00    +0.000 A 
ATOM     23  C   UNL     1       1.650  -0.639   0.000  0.00  0.00    +0.000 C 
BRANCH  22  24
ATOM     24  O   UNL     1       3.633  -2.281   0.000  0.00  0.00    +0.000 OA
ATOM     25  C   UNL     1       4.349  -2.691   0.000  0.00  0.00    +0.000 C 
ENDBRANCH  22  24
ENDBRANCH   7  17
BRANCH   8  26
ATOM     26  O   UNL     1       7.252   2.279   0.000  0.00  0.00    +0.000 OA
ATOM     27  C   UNL     1       7.966   2.691   0.000  0.00  0.00    +0.000 C 
ENDBRANCH   8  26
BRANCH  11  28
ATOM     28  O   UNL     1       4.339   1.474   0.000  0.00  0.00    +0.000 OA
ATOM     29  C   UNL     1       4.343   2.299   0.000  0.00  0.00    +0.000 C 
ENDBRANCH  11  28
TORSDOF 4
