REMARK  Name = 44258343
REMARK  8 active torsions:
REMARK  status: ('A' for Active; 'I' for Inactive)
REMARK    1  A    between atoms: O_2  and  C_12
REMARK    2  A    between atoms: O_2  and  C_21
REMARK    3  A    between atoms: O_7  and  C_20
REMARK    4  A    between atoms: C_14  and  C_17
REMARK    5  A    between atoms: C_16  and  C_18
REMARK    6  A    between atoms: C_21  and  C_23
REMARK    7  A    between atoms: C_23  and  C_26
REMARK    8  A    between atoms: C_28  and  C_33
REMARK                            x       y       z     vdW  Elec       q    Type
REMARK                         _______ _______ _______ _____ _____    ______ ____
ROOT
ATOM      1  O   UNL     1       7.389   0.384   0.000  0.00  0.00    +0.000 OA
ATOM      2  O   UNL     1       5.937   2.888   0.000  0.00  0.00    +0.000 OA
ATOM      3  O   UNL     1       7.379   2.916   0.000  0.00  0.00    +0.000 OA
ATOM      4  C   UNL     1       5.937   0.412   0.000  0.00  0.00    +0.000 A 
ATOM      5  C   UNL     1       6.651   0.825   0.000  0.00  0.00    +0.000 A 
ATOM      6  C   UNL     1       5.222   0.825   0.000  0.00  0.00    +0.000 A 
ATOM      7  C   UNL     1       6.651   1.650   0.000  0.00  0.00    +0.000 A 
ATOM      8  C   UNL     1       5.222   1.650   0.000  0.00  0.00    +0.000 A 
ATOM      9  C   UNL     1       5.937   2.062   0.000  0.00  0.00    +0.000 A 
ATOM     10  C   UNL     1       7.389   2.091   0.000  0.00  0.00    +0.000 A 
ATOM     11  C   UNL     1       8.136   0.808   0.000  0.00  0.00    +0.000 A 
ATOM     12  C   UNL     1       8.136   1.667   0.000  0.00  0.00    +0.000 A 
ENDROOT
BRANCH   4  18
ATOM     13  O   UNL     1       6.651  -0.825   0.000  0.00  0.00    +0.000 OA
ATOM     14  O   UNL     1       4.508  -2.062   0.000  0.00  0.00    +0.000 OA
ATOM     15  O   UNL     1       5.937  -2.888   0.000  0.00  0.00    +0.000 OA
ATOM     16  C   UNL     1       5.222  -0.825   0.000  0.00  0.00    +0.000 C 
ATOM     17  C   UNL     1       5.222  -1.650   0.000  0.00  0.00    +0.000 C 
ATOM     18  C   UNL     1       5.937  -0.412   0.000  0.00  0.00    +0.000 C 
ATOM     19  C   UNL     1       5.937  -2.062   0.000  0.00  0.00    +0.000 C 
ATOM     20  C   UNL     1       6.651  -1.650   0.000  0.00  0.00    +0.000 C 
BRANCH  20  22
ATOM     21  O   UNL     1       7.366  -2.888   0.000  0.00  0.00    +0.000 OA
ATOM     22  C   UNL     1       7.366  -2.062   0.000  0.00  0.00    +0.000 C 
ENDBRANCH  20  22
BRANCH  16  23
ATOM     23  O   UNL     1       4.508  -0.412   0.000  0.00  0.00    +0.000 OA
BRANCH  23  25
ATOM     24  O   UNL     1       3.793  -1.650   0.000  0.00  0.00    +0.000 OA
ATOM     25  C   UNL     1       3.793  -0.825   0.000  0.00  0.00    +0.000 C 
BRANCH  25  26
ATOM     26  C   UNL     1       3.079  -0.412   0.000  0.00  0.00    +0.000 C 
ATOM     27  C   UNL     1       3.079   0.412   0.000  0.00  0.00    +0.000 C 
BRANCH  26  28
ATOM     28  C   UNL     1       2.364  -0.825   0.000  0.00  0.00    +0.000 C 
ATOM     29  C   UNL     1       1.650  -0.412   0.000  0.00  0.00    +0.000 C 
ENDBRANCH  26  28
ENDBRANCH  25  26
ENDBRANCH  23  25
ENDBRANCH  16  23
ENDBRANCH   4  18
BRANCH  11  31
ATOM     30  O   UNL     1      10.988  -0.853   0.000  0.00  0.00    +0.000 OA
ATOM     31  C   UNL     1       8.849   0.393   0.000  0.00  0.00    +0.000 A 
ATOM     32  C   UNL     1       9.565   0.802   0.000  0.00  0.00    +0.000 A 
ATOM     33  C   UNL     1       8.846  -0.432   0.000  0.00  0.00    +0.000 A 
ATOM     34  C   UNL     1      10.278   0.387   0.000  0.00  0.00    +0.000 A 
ATOM     35  C   UNL     1       9.559  -0.848   0.000  0.00  0.00    +0.000 A 
ATOM     36  C   UNL     1      10.275  -0.438   0.000  0.00  0.00    +0.000 A 
ENDBRANCH  11  31
BRANCH   6  37
ATOM     37  O   UNL     1       4.508   0.412   0.000  0.00  0.00    +0.000 OA
ATOM     38  C   UNL     1       3.793   0.825   0.000  0.00  0.00    +0.000 C 
ENDBRANCH   6  37
TORSDOF 8
