REMARK  Name = 131832381
REMARK  7 active torsions:
REMARK  status: ('A' for Active; 'I' for Inactive)
REMARK    1  A    between atoms: O_2  and  C_13
REMARK    2  A    between atoms: O_2  and  C_15
REMARK    3  A    between atoms: C_14  and  C_17
REMARK    4  A    between atoms: C_18  and  C_21
REMARK    5  A    between atoms: C_21  and  C_28
REMARK    6  A    between atoms: C_28  and  C_29
REMARK    7  A    between atoms: C_29  and  C_30
REMARK                            x       y       z     vdW  Elec       q    Type
REMARK                         _______ _______ _______ _____ _____    ______ ____
ROOT
ATOM      1  O   UNL     1       7.389   2.013   0.000  0.00  0.00    +0.000 OA
ATOM      2  C   UNL     1       5.937   0.334   0.000  0.00  0.00    +0.000 A 
ATOM      3  C   UNL     1       6.651   0.747   0.000  0.00  0.00    +0.000 A 
ATOM      4  C   UNL     1       5.222   0.747   0.000  0.00  0.00    +0.000 A 
ATOM      5  C   UNL     1       8.136   1.589   0.000  0.00  0.00    +0.000 C 
ATOM      6  C   UNL     1       6.651   1.572   0.000  0.00  0.00    +0.000 A 
ATOM      7  C   UNL     1       7.389   0.305   0.000  0.00  0.00    +0.000 C 
ATOM      8  C   UNL     1       8.136   0.730   0.000  0.00  0.00    +0.000 C 
ATOM      9  C   UNL     1       5.222   1.572   0.000  0.00  0.00    +0.000 A 
ATOM     10  C   UNL     1       5.937   1.984   0.000  0.00  0.00    +0.000 A 
ATOM     11  C   UNL     1       8.961   1.592   0.000  0.00  0.00    +0.000 C 
ATOM     12  C   UNL     1       8.546   2.305   0.000  0.00  0.00    +0.000 C 
ENDROOT
BRANCH   2  13
ATOM     13  O   UNL     1       5.937  -0.491   0.000  0.00  0.00    +0.000 OA
BRANCH  13  21
ATOM     14  O   UNL     1       4.508  -0.491   0.000  0.00  0.00    +0.000 OA
ATOM     15  O   UNL     1       4.508  -2.966   0.000  0.00  0.00    +0.000 OA
ATOM     16  O   UNL     1       5.937  -2.141   0.000  0.00  0.00    +0.000 OA
ATOM     17  O   UNL     1       3.079  -2.141   0.000  0.00  0.00    +0.000 OA
ATOM     18  C   UNL     1       4.508  -2.141   0.000  0.00  0.00    +0.000 C 
ATOM     19  C   UNL     1       5.222  -1.728   0.000  0.00  0.00    +0.000 C 
ATOM     20  C   UNL     1       3.793  -1.728   0.000  0.00  0.00    +0.000 C 
ATOM     21  C   UNL     1       5.222  -0.903   0.000  0.00  0.00    +0.000 C 
ATOM     22  C   UNL     1       3.793  -0.903   0.000  0.00  0.00    +0.000 C 
BRANCH  22  25
ATOM     23  O   UNL     1       2.364  -0.903   0.000  0.00  0.00    +0.000 OA
ATOM     24  O   UNL     1       3.079   0.334   0.000  0.00  0.00    +0.000 OA
ATOM     25  C   UNL     1       3.079  -0.491   0.000  0.00  0.00    +0.000 C 
ENDBRANCH  22  25
ENDBRANCH  13  21
ENDBRANCH   2  13
BRANCH   4  26
ATOM     26  C   UNL     1       4.508   0.334   0.000  0.00  0.00    +0.000 C 
BRANCH  26  27
ATOM     27  C   UNL     1       3.793   0.747   0.000  0.00  0.00    +0.000 C 
BRANCH  27  29
ATOM     28  O   UNL     1       4.508   1.984   0.000  0.00  0.00    +0.000 OA
ATOM     29  C   UNL     1       3.793   1.572   0.000  0.00  0.00    +0.000 C 
BRANCH  29  30
ATOM     30  C   UNL     1       3.079   1.984   0.000  0.00  0.00    +0.000 A 
ATOM     31  C   UNL     1       2.364   1.572   0.000  0.00  0.00    +0.000 A 
ATOM     32  C   UNL     1       3.079   2.809   0.000  0.00  0.00    +0.000 A 
ATOM     33  C   UNL     1       1.650   1.984   0.000  0.00  0.00    +0.000 A 
ATOM     34  C   UNL     1       2.364   3.222   0.000  0.00  0.00    +0.000 A 
ATOM     35  C   UNL     1       1.650   2.809   0.000  0.00  0.00    +0.000 A 
ENDBRANCH  29  30
ENDBRANCH  27  29
ENDBRANCH  26  27
ENDBRANCH   4  26
TORSDOF 7
