REMARK  Name = 42607856
REMARK  3 active torsions:
REMARK  status: ('A' for Active; 'I' for Inactive)
REMARK    1  A    between atoms: O_2  and  C_13
REMARK    2  A    between atoms: O_2  and  C_15
REMARK    3  A    between atoms: C_16  and  C_24
REMARK                            x       y       z     vdW  Elec       q    Type
REMARK                         _______ _______ _______ _____ _____    ______ ____
ROOT
ATOM      1  O   UNL     1       6.399   1.394   0.000  0.00  0.00    +0.000 OA
ATOM      2  O   UNL     1       3.510   1.408   0.000  0.00  0.00    +0.000 OA
ATOM      3  O   UNL     1       4.261   2.640   0.000  0.00  0.00    +0.000 OA
ATOM      4  C   UNL     1       4.951  -0.308   0.000  0.00  0.00    +0.000 A 
ATOM      5  C   UNL     1       6.403   2.219   0.000  0.00  0.00    +0.000 C 
ATOM      6  C   UNL     1       5.690   2.634   0.000  0.00  0.00    +0.000 C 
ATOM      7  C   UNL     1       5.684   0.984   0.000  0.00  0.00    +0.000 A 
ATOM      8  C   UNL     1       4.971   1.399   0.000  0.00  0.00    +0.000 A 
ATOM      9  C   UNL     1       5.693   0.125   0.000  0.00  0.00    +0.000 A 
ATOM     10  C   UNL     1       4.974   2.224   0.000  0.00  0.00    +0.000 C 
ATOM     11  C   UNL     1       4.208   0.125   0.000  0.00  0.00    +0.000 A 
ATOM     12  C   UNL     1       4.218   0.984   0.000  0.00  0.00    +0.000 A 
ENDROOT
BRANCH   5  13
ATOM     13  C   UNL     1       7.119   2.629   0.000  0.00  0.00    +0.000 A 
ATOM     14  C   UNL     1       7.122   3.454   0.000  0.00  0.00    +0.000 A 
ATOM     15  C   UNL     1       7.832   2.213   0.000  0.00  0.00    +0.000 A 
ATOM     16  C   UNL     1       7.838   3.863   0.000  0.00  0.00    +0.000 A 
ATOM     17  C   UNL     1       8.548   2.623   0.000  0.00  0.00    +0.000 A 
ATOM     18  C   UNL     1       8.551   3.448   0.000  0.00  0.00    +0.000 A 
ENDBRANCH   5  13
BRANCH   4  19
ATOM     19  O   UNL     1       4.951  -1.133   0.000  0.00  0.00    +0.000 OA
BRANCH  19  28
ATOM     20  O   UNL     1       3.522  -1.133   0.000  0.00  0.00    +0.000 OA
ATOM     21  O   UNL     1       3.522  -3.608   0.000  0.00  0.00    +0.000 OA
ATOM     22  O   UNL     1       2.093  -2.783   0.000  0.00  0.00    +0.000 OA
ATOM     23  O   UNL     1       4.951  -2.783   0.000  0.00  0.00    +0.000 OA
ATOM     24  C   UNL     1       3.522  -2.783   0.000  0.00  0.00    +0.000 C 
ATOM     25  C   UNL     1       2.808  -2.370   0.000  0.00  0.00    +0.000 C 
ATOM     26  C   UNL     1       4.236  -2.370   0.000  0.00  0.00    +0.000 C 
ATOM     27  C   UNL     1       2.808  -1.545   0.000  0.00  0.00    +0.000 C 
ATOM     28  C   UNL     1       4.236  -1.545   0.000  0.00  0.00    +0.000 C 
ATOM     29  C   UNL     1       2.093  -1.133   0.000  0.00  0.00    +0.000 C 
ENDBRANCH  19  28
ENDBRANCH   4  19
TORSDOF 3
