REMARK  Name = 131752280
REMARK  10 active torsions:
REMARK  status: ('A' for Active; 'I' for Inactive)
REMARK    1  A    between atoms: O_1  and  C_18
REMARK    2  A    between atoms: O_1  and  C_23
REMARK    3  A    between atoms: O_10  and  C_30
REMARK    4  A    between atoms: O_10  and  C_39
REMARK    5  A    between atoms: C_20  and  C_28
REMARK    6  A    between atoms: C_22  and  C_29
REMARK    7  A    between atoms: C_27  and  C_30
REMARK    8  A    between atoms: C_38  and  C_40
REMARK    9  A    between atoms: C_39  and  C_41
REMARK   10  A    between atoms: C_44  and  C_48
REMARK                            x       y       z     vdW  Elec       q    Type
REMARK                         _______ _______ _______ _____ _____    ______ ____
ROOT
ATOM      1  O   UNL     1      11.381   1.316   0.000  0.00  0.00    +0.000 OA
ATOM      2  O   UNL     1       9.238   0.078   0.000  0.00  0.00    +0.000 OA
ATOM      3  O   UNL     1       9.238   1.728   0.000  0.00  0.00    +0.000 OA
ATOM      4  C   UNL     1      10.667   0.078   0.000  0.00  0.00    +0.000 C 
ATOM      5  C   UNL     1       9.952   0.491   0.000  0.00  0.00    +0.000 C 
ATOM      6  C   UNL     1      11.381   0.491   0.000  0.00  0.00    +0.000 C 
ATOM      7  C   UNL     1       9.952   1.316   0.000  0.00  0.00    +0.000 C 
ATOM      8  C   UNL     1      10.667   1.728   0.000  0.00  0.00    +0.000 C 
ENDROOT
BRANCH   6  13
ATOM      9  O   UNL     1      12.810   1.316   0.000  0.00  0.00    +0.000 OA
ATOM     10  O   UNL     1      11.381  -1.159   0.000  0.00  0.00    +0.000 OA
ATOM     11  O   UNL     1      14.262  -1.188   0.000  0.00  0.00    +0.000 OA
ATOM     12  O   UNL     1      14.253   1.344   0.000  0.00  0.00    +0.000 OA
ATOM     13  C   UNL     1      12.096   0.078   0.000  0.00  0.00    +0.000 A 
ATOM     14  C   UNL     1      12.810   0.491   0.000  0.00  0.00    +0.000 A 
ATOM     15  C   UNL     1      12.096  -0.747   0.000  0.00  0.00    +0.000 A 
ATOM     16  C   UNL     1      13.525   0.078   0.000  0.00  0.00    +0.000 A 
ATOM     17  C   UNL     1      12.810  -1.159   0.000  0.00  0.00    +0.000 A 
ATOM     18  C   UNL     1      13.525  -0.747   0.000  0.00  0.00    +0.000 A 
ATOM     19  C   UNL     1      14.262   0.519   0.000  0.00  0.00    +0.000 A 
ATOM     20  C   UNL     1      15.010   0.096   0.000  0.00  0.00    +0.000 A 
ATOM     21  C   UNL     1      15.010  -0.764   0.000  0.00  0.00    +0.000 A 
BRANCH  21  23
ATOM     22  O   UNL     1      17.861  -2.425   0.000  0.00  0.00    +0.000 OA
ATOM     23  C   UNL     1      15.723  -1.179   0.000  0.00  0.00    +0.000 A 
ATOM     24  C   UNL     1      15.720  -2.004   0.000  0.00  0.00    +0.000 A 
ATOM     25  C   UNL     1      16.439  -0.769   0.000  0.00  0.00    +0.000 A 
ATOM     26  C   UNL     1      16.432  -2.419   0.000  0.00  0.00    +0.000 A 
ATOM     27  C   UNL     1      17.152  -1.185   0.000  0.00  0.00    +0.000 A 
ATOM     28  C   UNL     1      17.148  -2.010   0.000  0.00  0.00    +0.000 A 
ENDBRANCH  21  23
ENDBRANCH   6  13
BRANCH   8  30
ATOM     29  O   UNL     1       9.952   2.966   0.000  0.00  0.00    +0.000 OA
ATOM     30  C   UNL     1      10.667   2.553   0.000  0.00  0.00    +0.000 C 
ENDBRANCH   8  30
BRANCH   4  31
ATOM     31  O   UNL     1      10.667  -0.747   0.000  0.00  0.00    +0.000 OA
BRANCH  31  36
ATOM     32  O   UNL     1       9.238  -0.747   0.000  0.00  0.00    +0.000 OA
ATOM     33  O   UNL     1      10.667  -2.397   0.000  0.00  0.00    +0.000 OA
ATOM     34  O   UNL     1       9.238  -3.222   0.000  0.00  0.00    +0.000 OA
ATOM     35  O   UNL     1       7.809  -2.397   0.000  0.00  0.00    +0.000 OA
ATOM     36  C   UNL     1       9.952  -1.159   0.000  0.00  0.00    +0.000 C 
ATOM     37  C   UNL     1       9.952  -1.984   0.000  0.00  0.00    +0.000 C 
ATOM     38  C   UNL     1       9.238  -2.397   0.000  0.00  0.00    +0.000 C 
ATOM     39  C   UNL     1       8.523  -1.984   0.000  0.00  0.00    +0.000 C 
ATOM     40  C   UNL     1       8.523  -1.159   0.000  0.00  0.00    +0.000 C 
BRANCH  40  41
ATOM     41  C   UNL     1       7.809  -0.747   0.000  0.00  0.00    +0.000 C 
BRANCH  41  42
ATOM     42  O   UNL     1       7.094  -1.159   0.000  0.00  0.00    +0.000 OA
BRANCH  42  44
ATOM     43  O   UNL     1       6.380   0.078   0.000  0.00  0.00    +0.000 OA
ATOM     44  C   UNL     1       6.380  -0.747   0.000  0.00  0.00    +0.000 C 
BRANCH  44  45
ATOM     45  C   UNL     1       5.665  -1.159   0.000  0.00  0.00    +0.000 C 
ATOM     46  C   UNL     1       4.951  -0.747   0.000  0.00  0.00    +0.000 C 
BRANCH  46  48
ATOM     47  O   UNL     1       2.093  -2.397   0.000  0.00  0.00    +0.000 OA
ATOM     48  C   UNL     1       4.236  -1.159   0.000  0.00  0.00    +0.000 A 
ATOM     49  C   UNL     1       3.522  -0.747   0.000  0.00  0.00    +0.000 A 
ATOM     50  C   UNL     1       4.236  -1.984   0.000  0.00  0.00    +0.000 A 
ATOM     51  C   UNL     1       2.808  -1.159   0.000  0.00  0.00    +0.000 A 
ATOM     52  C   UNL     1       3.522  -2.397   0.000  0.00  0.00    +0.000 A 
ATOM     53  C   UNL     1       2.808  -1.984   0.000  0.00  0.00    +0.000 A 
ENDBRANCH  46  48
ENDBRANCH  44  45
ENDBRANCH  42  44
ENDBRANCH  41  42
ENDBRANCH  40  41
ENDBRANCH  31  36
ENDBRANCH   4  31
TORSDOF 10
