REMARK  Name = 14769209
REMARK  7 active torsions:
REMARK  status: ('A' for Active; 'I' for Inactive)
REMARK    1  A    between atoms: O_5  and  C_22
REMARK    2  A    between atoms: O_5  and  C_30
REMARK    3  A    between atoms: O_7  and  C_27
REMARK    4  A    between atoms: O_7  and  C_31
REMARK    5  A    between atoms: C_20  and  C_28
REMARK    6  A    between atoms: C_26  and  C_29
REMARK    7  A    between atoms: C_37  and  C_42
REMARK                            x       y       z     vdW  Elec       q    Type
REMARK                         _______ _______ _______ _____ _____    ______ ____
ROOT
ATOM      1  O   UNL     1       6.380   0.187   0.000  0.00  0.00    +0.000 OA
ATOM      2  O   UNL     1       4.933   2.688   0.000  0.00  0.00    +0.000 OA
ATOM      3  O   UNL     1       4.236   1.424   0.000  0.00  0.00    +0.000 OA
ATOM      4  C   UNL     1       7.137   2.289   0.000  0.00  0.00    +0.000 A 
ATOM      5  C   UNL     1       7.131   1.430   0.000  0.00  0.00    +0.000 A 
ATOM      6  C   UNL     1       6.393   2.719   0.000  0.00  0.00    +0.000 A 
ATOM      7  C   UNL     1       6.380   1.012   0.000  0.00  0.00    +0.000 A 
ATOM      8  C   UNL     1       5.665   1.424   0.000  0.00  0.00    +0.000 A 
ATOM      9  C   UNL     1       5.652   2.284   0.000  0.00  0.00    +0.000 A 
ATOM     10  C   UNL     1       5.665  -0.226   0.000  0.00  0.00    +0.000 A 
ATOM     11  C   UNL     1       4.951   1.012   0.000  0.00  0.00    +0.000 A 
ATOM     12  C   UNL     1       4.951   0.187   0.000  0.00  0.00    +0.000 A 
ENDROOT
BRANCH  10  17
ATOM     13  O   UNL     1       4.236  -2.701   0.000  0.00  0.00    +0.000 OA
ATOM     14  C   UNL     1       5.665  -2.701   0.000  0.00  0.00    +0.000 A 
ATOM     15  C   UNL     1       4.951  -2.288   0.000  0.00  0.00    +0.000 A 
ATOM     16  C   UNL     1       6.380  -2.288   0.000  0.00  0.00    +0.000 A 
ATOM     17  C   UNL     1       5.665  -1.051   0.000  0.00  0.00    +0.000 A 
ATOM     18  C   UNL     1       4.951  -1.463   0.000  0.00  0.00    +0.000 A 
ATOM     19  C   UNL     1       6.380  -1.463   0.000  0.00  0.00    +0.000 A 
BRANCH  14  20
ATOM     20  O   UNL     1       5.665  -3.526   0.000  0.00  0.00    +0.000 OA
BRANCH  20  29
ATOM     21  O   UNL     1       4.236  -3.526   0.000  0.00  0.00    +0.000 OA
ATOM     22  O   UNL     1       2.808  -5.176   0.000  0.00  0.00    +0.000 OA
ATOM     23  O   UNL     1       4.236  -6.001   0.000  0.00  0.00    +0.000 OA
ATOM     24  O   UNL     1       5.665  -5.176   0.000  0.00  0.00    +0.000 OA
ATOM     25  C   UNL     1       3.522  -4.763   0.000  0.00  0.00    +0.000 C 
ATOM     26  C   UNL     1       4.236  -5.176   0.000  0.00  0.00    +0.000 C 
ATOM     27  C   UNL     1       3.522  -3.938   0.000  0.00  0.00    +0.000 C 
ATOM     28  C   UNL     1       4.951  -4.763   0.000  0.00  0.00    +0.000 C 
ATOM     29  C   UNL     1       4.951  -3.938   0.000  0.00  0.00    +0.000 C 
BRANCH  27  31
ATOM     30  O   UNL     1       2.093  -3.938   0.000  0.00  0.00    +0.000 OA
ATOM     31  C   UNL     1       2.808  -3.526   0.000  0.00  0.00    +0.000 C 
ENDBRANCH  27  31
ENDBRANCH  20  29
ENDBRANCH  14  20
ENDBRANCH  10  17
BRANCH   4  32
ATOM     32  O   UNL     1       7.853   2.699   0.000  0.00  0.00    +0.000 OA
BRANCH  32  41
ATOM     33  O   UNL     1       8.572   3.934   0.000  0.00  0.00    +0.000 OA
ATOM     34  O   UNL     1       6.434   5.179   0.000  0.00  0.00    +0.000 OA
ATOM     35  O   UNL     1       7.866   5.999   0.000  0.00  0.00    +0.000 OA
ATOM     36  O   UNL     1       6.428   3.530   0.000  0.00  0.00    +0.000 OA
ATOM     37  C   UNL     1       7.147   4.764   0.000  0.00  0.00    +0.000 C 
ATOM     38  C   UNL     1       7.863   5.174   0.000  0.00  0.00    +0.000 C 
ATOM     39  C   UNL     1       7.144   3.939   0.000  0.00  0.00    +0.000 C 
ATOM     40  C   UNL     1       8.576   4.759   0.000  0.00  0.00    +0.000 C 
ATOM     41  C   UNL     1       7.856   3.524   0.000  0.00  0.00    +0.000 C 
BRANCH  40  44
ATOM     42  O   UNL     1      10.005   4.753   0.000  0.00  0.00    +0.000 OA
ATOM     43  O   UNL     1       9.295   5.994   0.000  0.00  0.00    +0.000 OA
ATOM     44  C   UNL     1       9.292   5.168   0.000  0.00  0.00    +0.000 C 
ENDBRANCH  40  44
ENDBRANCH  32  41
ENDBRANCH   4  32
TORSDOF 7
