REMARK  Name = 11968794
REMARK  7 active torsions:
REMARK  status: ('A' for Active; 'I' for Inactive)
REMARK    1  A    between atoms: O_1  and  C_19
REMARK    2  A    between atoms: O_1  and  C_20
REMARK    3  A    between atoms: O_8  and  C_28
REMARK    4  A    between atoms: O_8  and  C_31
REMARK    5  A    between atoms: C_25  and  C_30
REMARK    6  A    between atoms: C_27  and  C_29
REMARK    7  A    between atoms: C_32  and  C_35
REMARK                            x       y       z     vdW  Elec       q    Type
REMARK                         _______ _______ _______ _____ _____    ______ ____
ROOT
ATOM      1  O   UNL     1       6.380   0.078   0.000  0.00  0.00    +0.000 OA
ATOM      2  O   UNL     1       4.236  -1.159   0.000  0.00  0.00    +0.000 OA
ATOM      3  O   UNL     1       4.236   0.491   0.000  0.00  0.00    +0.000 OA
ATOM      4  C   UNL     1       5.665  -1.159   0.000  0.00  0.00    +0.000 C 
ATOM      5  C   UNL     1       4.951  -0.747   0.000  0.00  0.00    +0.000 C 
ATOM      6  C   UNL     1       6.380  -0.747   0.000  0.00  0.00    +0.000 C 
ATOM      7  C   UNL     1       4.951   0.078   0.000  0.00  0.00    +0.000 C 
ATOM      8  C   UNL     1       5.665   0.491   0.000  0.00  0.00    +0.000 C 
ENDROOT
BRANCH   6  11
ATOM      9  O   UNL     1       7.809  -0.747   0.000  0.00  0.00    +0.000 OA
ATOM     10  O   UNL     1       7.094  -1.984   0.000  0.00  0.00    +0.000 OA
ATOM     11  C   UNL     1       7.094  -1.159   0.000  0.00  0.00    +0.000 C 
ENDBRANCH   6  11
BRANCH   4  12
ATOM     12  O   UNL     1       5.665  -1.984   0.000  0.00  0.00    +0.000 OA
BRANCH  12  17
ATOM     13  O   UNL     1       4.236  -1.984   0.000  0.00  0.00    +0.000 OA
ATOM     14  O   UNL     1       5.665  -3.634   0.000  0.00  0.00    +0.000 OA
ATOM     15  O   UNL     1       4.236  -4.459   0.000  0.00  0.00    +0.000 OA
ATOM     16  O   UNL     1       2.808  -3.634   0.000  0.00  0.00    +0.000 OA
ATOM     17  C   UNL     1       4.951  -2.397   0.000  0.00  0.00    +0.000 C 
ATOM     18  C   UNL     1       4.951  -3.222   0.000  0.00  0.00    +0.000 C 
ATOM     19  C   UNL     1       4.236  -3.634   0.000  0.00  0.00    +0.000 C 
ATOM     20  C   UNL     1       3.522  -3.222   0.000  0.00  0.00    +0.000 C 
ATOM     21  C   UNL     1       3.522  -2.397   0.000  0.00  0.00    +0.000 C 
BRANCH  21  23
ATOM     22  O   UNL     1       2.093  -2.397   0.000  0.00  0.00    +0.000 OA
ATOM     23  C   UNL     1       2.808  -1.984   0.000  0.00  0.00    +0.000 C 
ENDBRANCH  21  23
ENDBRANCH  12  17
ENDBRANCH   4  12
BRANCH   8  24
ATOM     24  O   UNL     1       5.665   1.316   0.000  0.00  0.00    +0.000 OA
BRANCH  24  29
ATOM     25  O   UNL     1       7.094   2.966   0.000  0.00  0.00    +0.000 OA
ATOM     26  O   UNL     1       7.094   0.491   0.000  0.00  0.00    +0.000 OA
ATOM     27  O   UNL     1       8.537   0.462   0.000  0.00  0.00    +0.000 OA
ATOM     28  O   UNL     1      10.007   2.986   0.000  0.00  0.00    +0.000 OA
ATOM     29  C   UNL     1       6.380   1.728   0.000  0.00  0.00    +0.000 A 
ATOM     30  C   UNL     1       6.380   2.553   0.000  0.00  0.00    +0.000 A 
ATOM     31  C   UNL     1       7.094   1.316   0.000  0.00  0.00    +0.000 A 
ATOM     32  C   UNL     1       7.809   1.728   0.000  0.00  0.00    +0.000 A 
ATOM     33  C   UNL     1       7.809   2.553   0.000  0.00  0.00    +0.000 A 
ATOM     34  C   UNL     1       8.546   1.287   0.000  0.00  0.00    +0.000 A 
ATOM     35  C   UNL     1       8.546   2.994   0.000  0.00  0.00    +0.000 A 
ATOM     36  C   UNL     1       9.294   1.711   0.000  0.00  0.00    +0.000 A 
ATOM     37  C   UNL     1       9.294   2.571   0.000  0.00  0.00    +0.000 A 
BRANCH  30  40
ATOM     38  O   UNL     1       3.522   2.553   0.000  0.00  0.00    +0.000 OA
ATOM     39  O   UNL     1       3.522   4.203   0.000  0.00  0.00    +0.000 OA
ATOM     40  C   UNL     1       5.665   2.966   0.000  0.00  0.00    +0.000 A 
ATOM     41  C   UNL     1       4.951   2.553   0.000  0.00  0.00    +0.000 A 
ATOM     42  C   UNL     1       5.665   3.791   0.000  0.00  0.00    +0.000 A 
ATOM     43  C   UNL     1       4.236   2.966   0.000  0.00  0.00    +0.000 A 
ATOM     44  C   UNL     1       4.951   4.203   0.000  0.00  0.00    +0.000 A 
ATOM     45  C   UNL     1       4.236   3.791   0.000  0.00  0.00    +0.000 A 
ENDBRANCH  30  40
ENDBRANCH  24  29
ENDBRANCH   8  24
TORSDOF 7
