REMARK  Name = 131752833
REMARK  12 active torsions:
REMARK  status: ('A' for Active; 'I' for Inactive)
REMARK    1  A    between atoms: O_1  and  C_28
REMARK    2  A    between atoms: O_1  and  C_31
REMARK    3  A    between atoms: O_3  and  C_27
REMARK    4  A    between atoms: O_3  and  C_34
REMARK    5  A    between atoms: O_8  and  C_36
REMARK    6  A    between atoms: O_8  and  C_45
REMARK    7  A    between atoms: O_18  and  C_50
REMARK    8  A    between atoms: O_18  and  C_57
REMARK    9  A    between atoms: C_32  and  C_42
REMARK   10  A    between atoms: C_38  and  C_43
REMARK   11  A    between atoms: C_41  and  C_44
REMARK   12  A    between atoms: C_51  and  C_56
REMARK                            x       y       z     vdW  Elec       q    Type
REMARK                         _______ _______ _______ _____ _____    ______ ____
ROOT
ATOM      1  O   UNL     1       5.665   1.014   0.000  0.00  0.00    +0.000 OA
ATOM      2  O   UNL     1       3.522  -0.224   0.000  0.00  0.00    +0.000 OA
ATOM      3  O   UNL     1       3.522   1.426   0.000  0.00  0.00    +0.000 OA
ATOM      4  C   UNL     1       4.951  -0.224   0.000  0.00  0.00    +0.000 C 
ATOM      5  C   UNL     1       4.236   0.189   0.000  0.00  0.00    +0.000 C 
ATOM      6  C   UNL     1       4.236   1.014   0.000  0.00  0.00    +0.000 C 
ATOM      7  C   UNL     1       5.665   0.189   0.000  0.00  0.00    +0.000 C 
ATOM      8  C   UNL     1       4.951   1.426   0.000  0.00  0.00    +0.000 C 
ENDROOT
BRANCH   8  10
ATOM      9  O   UNL     1       4.236   2.663   0.000  0.00  0.00    +0.000 OA
ATOM     10  C   UNL     1       4.951   2.251   0.000  0.00  0.00    +0.000 C 
ENDBRANCH   8  10
BRANCH   4  11
ATOM     11  O   UNL     1       4.951  -1.049   0.000  0.00  0.00    +0.000 OA
BRANCH  11  16
ATOM     12  O   UNL     1       3.522  -1.049   0.000  0.00  0.00    +0.000 OA
ATOM     13  O   UNL     1       3.522  -3.524   0.000  0.00  0.00    +0.000 OA
ATOM     14  O   UNL     1       2.093  -2.699   0.000  0.00  0.00    +0.000 OA
ATOM     15  C   UNL     1       4.236  -2.287   0.000  0.00  0.00    +0.000 C 
ATOM     16  C   UNL     1       4.236  -1.462   0.000  0.00  0.00    +0.000 C 
ATOM     17  C   UNL     1       3.522  -2.699   0.000  0.00  0.00    +0.000 C 
ATOM     18  C   UNL     1       2.808  -2.287   0.000  0.00  0.00    +0.000 C 
ATOM     19  C   UNL     1       2.808  -1.462   0.000  0.00  0.00    +0.000 C 
BRANCH  19  21
ATOM     20  O   UNL     1       2.093  -0.224   0.000  0.00  0.00    +0.000 OA
ATOM     21  C   UNL     1       2.093  -1.049   0.000  0.00  0.00    +0.000 C 
ENDBRANCH  19  21
BRANCH  15  22
ATOM     22  O   UNL     1       4.951  -2.699   0.000  0.00  0.00    +0.000 OA
BRANCH  22  27
ATOM     23  O   UNL     1       4.236  -3.937   0.000  0.00  0.00    +0.000 OA
ATOM     24  O   UNL     1       6.380  -3.524   0.000  0.00  0.00    +0.000 OA
ATOM     25  O   UNL     1       6.380  -5.174   0.000  0.00  0.00    +0.000 OA
ATOM     26  O   UNL     1       4.951  -5.999   0.000  0.00  0.00    +0.000 OA
ATOM     27  C   UNL     1       4.951  -3.524   0.000  0.00  0.00    +0.000 C 
ATOM     28  C   UNL     1       5.665  -3.937   0.000  0.00  0.00    +0.000 C 
ATOM     29  C   UNL     1       5.665  -4.761   0.000  0.00  0.00    +0.000 C 
ATOM     30  C   UNL     1       4.951  -5.174   0.000  0.00  0.00    +0.000 C 
ATOM     31  C   UNL     1       4.236  -4.761   0.000  0.00  0.00    +0.000 C 
BRANCH  31  33
ATOM     32  O   UNL     1       2.808  -4.761   0.000  0.00  0.00    +0.000 OA
ATOM     33  C   UNL     1       3.522  -5.174   0.000  0.00  0.00    +0.000 C 
ENDBRANCH  31  33
ENDBRANCH  22  27
ENDBRANCH  15  22
ENDBRANCH  11  16
ENDBRANCH   4  11
BRANCH   7  34
ATOM     34  O   UNL     1       6.380  -0.224   0.000  0.00  0.00    +0.000 OA
BRANCH  34  38
ATOM     35  O   UNL     1       8.523   0.189   0.000  0.00  0.00    +0.000 OA
ATOM     36  O   UNL     1       6.380   1.426   0.000  0.00  0.00    +0.000 OA
ATOM     37  O   UNL     1       7.076   2.689   0.000  0.00  0.00    +0.000 OA
ATOM     38  C   UNL     1       7.094   0.189   0.000  0.00  0.00    +0.000 A 
ATOM     39  C   UNL     1       7.809  -0.224   0.000  0.00  0.00    +0.000 A 
ATOM     40  C   UNL     1       7.094   1.014   0.000  0.00  0.00    +0.000 A 
ATOM     41  C   UNL     1       7.809   1.426   0.000  0.00  0.00    +0.000 A 
ATOM     42  C   UNL     1       8.523   1.014   0.000  0.00  0.00    +0.000 A 
ATOM     43  C   UNL     1       9.281   2.291   0.000  0.00  0.00    +0.000 A 
ATOM     44  C   UNL     1       9.274   1.432   0.000  0.00  0.00    +0.000 A 
ATOM     45  C   UNL     1       7.795   2.285   0.000  0.00  0.00    +0.000 A 
ATOM     46  C   UNL     1       8.536   2.721   0.000  0.00  0.00    +0.000 A 
BRANCH  39  49
ATOM     47  O   UNL     1       9.238  -2.699   0.000  0.00  0.00    +0.000 OA
ATOM     48  O   UNL     1       7.809  -3.524   0.000  0.00  0.00    +0.000 OA
ATOM     49  C   UNL     1       7.809  -1.049   0.000  0.00  0.00    +0.000 A 
ATOM     50  C   UNL     1       8.523  -1.462   0.000  0.00  0.00    +0.000 A 
ATOM     51  C   UNL     1       7.094  -1.462   0.000  0.00  0.00    +0.000 A 
ATOM     52  C   UNL     1       8.523  -2.287   0.000  0.00  0.00    +0.000 A 
ATOM     53  C   UNL     1       7.094  -2.287   0.000  0.00  0.00    +0.000 A 
ATOM     54  C   UNL     1       7.809  -2.699   0.000  0.00  0.00    +0.000 A 
ENDBRANCH  39  49
BRANCH  43  55
ATOM     55  O   UNL     1       9.997   2.701   0.000  0.00  0.00    +0.000 OA
BRANCH  55  64
ATOM     56  O   UNL     1      10.716   3.935   0.000  0.00  0.00    +0.000 OA
ATOM     57  O   UNL     1       8.577   5.181   0.000  0.00  0.00    +0.000 OA
ATOM     58  O   UNL     1      10.009   6.001   0.000  0.00  0.00    +0.000 OA
ATOM     59  O   UNL     1       8.571   3.531   0.000  0.00  0.00    +0.000 OA
ATOM     60  C   UNL     1       9.290   4.766   0.000  0.00  0.00    +0.000 C 
ATOM     61  C   UNL     1      10.006   5.176   0.000  0.00  0.00    +0.000 C 
ATOM     62  C   UNL     1       9.287   3.941   0.000  0.00  0.00    +0.000 C 
ATOM     63  C   UNL     1      10.719   4.760   0.000  0.00  0.00    +0.000 C 
ATOM     64  C   UNL     1      10.000   3.526   0.000  0.00  0.00    +0.000 C 
ATOM     65  C   UNL     1      11.435   5.170   0.000  0.00  0.00    +0.000 C 
ENDBRANCH  55  64
ENDBRANCH  43  55
ENDBRANCH  34  38
ENDBRANCH   7  34
TORSDOF 12
