REMARK  Name = 44259163
REMARK  9 active torsions:
REMARK  status: ('A' for Active; 'I' for Inactive)
REMARK    1  A    between atoms: O_1  and  C_22
REMARK    2  A    between atoms: O_1  and  C_27
REMARK    3  A    between atoms: O_4  and  C_30
REMARK    4  A    between atoms: O_4  and  C_33
REMARK    5  A    between atoms: O_6  and  C_26
REMARK    6  A    between atoms: O_6  and  C_40
REMARK    7  A    between atoms: C_25  and  C_30
REMARK    8  A    between atoms: C_37  and  C_39
REMARK    9  A    between atoms: C_41  and  C_44
REMARK                            x       y       z     vdW  Elec       q    Type
REMARK                         _______ _______ _______ _____ _____    ______ ____
ROOT
ATOM      1  O   UNL     1       7.809   0.177   0.000  0.00  0.00    +0.000 OA
ATOM      2  O   UNL     1       7.809  -2.298   0.000  0.00  0.00    +0.000 OA
ATOM      3  O   UNL     1       6.380  -1.473   0.000  0.00  0.00    +0.000 OA
ATOM      4  C   UNL     1       8.523  -1.061   0.000  0.00  0.00    +0.000 C 
ATOM      5  C   UNL     1       7.809  -1.473   0.000  0.00  0.00    +0.000 C 
ATOM      6  C   UNL     1       7.094  -1.061   0.000  0.00  0.00    +0.000 C 
ATOM      7  C   UNL     1       7.094  -0.236   0.000  0.00  0.00    +0.000 C 
ATOM      8  C   UNL     1       8.523  -0.236   0.000  0.00  0.00    +0.000 C 
ENDROOT
BRANCH   4   9
ATOM      9  O   UNL     1       9.238  -1.473   0.000  0.00  0.00    +0.000 OA
BRANCH   9  14
ATOM     10  O   UNL     1       8.523  -2.711   0.000  0.00  0.00    +0.000 OA
ATOM     11  O   UNL     1      10.667  -2.298   0.000  0.00  0.00    +0.000 OA
ATOM     12  O   UNL     1      10.667  -3.948   0.000  0.00  0.00    +0.000 OA
ATOM     13  O   UNL     1       9.238  -4.773   0.000  0.00  0.00    +0.000 OA
ATOM     14  C   UNL     1       9.238  -2.298   0.000  0.00  0.00    +0.000 C 
ATOM     15  C   UNL     1       9.952  -2.711   0.000  0.00  0.00    +0.000 C 
ATOM     16  C   UNL     1       9.952  -3.536   0.000  0.00  0.00    +0.000 C 
ATOM     17  C   UNL     1       9.238  -3.948   0.000  0.00  0.00    +0.000 C 
ATOM     18  C   UNL     1       8.523  -3.536   0.000  0.00  0.00    +0.000 C 
ATOM     19  C   UNL     1       7.809  -3.948   0.000  0.00  0.00    +0.000 C 
ENDBRANCH   9  14
ENDBRANCH   4   9
BRANCH   8  20
ATOM     20  O   UNL     1       9.238   0.177   0.000  0.00  0.00    +0.000 OA
BRANCH  20  25
ATOM     21  O   UNL     1       9.952   2.239   0.000  0.00  0.00    +0.000 OA
ATOM     22  O   UNL     1       7.809   1.002   0.000  0.00  0.00    +0.000 OA
ATOM     23  O   UNL     1       7.063   2.237   0.000  0.00  0.00    +0.000 OA
ATOM     24  O   UNL     1       8.513   4.771   0.000  0.00  0.00    +0.000 OA
ATOM     25  C   UNL     1       9.238   1.002   0.000  0.00  0.00    +0.000 A 
ATOM     26  C   UNL     1       9.952   1.414   0.000  0.00  0.00    +0.000 A 
ATOM     27  C   UNL     1       8.523   1.414   0.000  0.00  0.00    +0.000 A 
ATOM     28  C   UNL     1       8.523   2.239   0.000  0.00  0.00    +0.000 A 
ATOM     29  C   UNL     1       9.238   2.652   0.000  0.00  0.00    +0.000 A 
ATOM     30  C   UNL     1       7.772   2.658   0.000  0.00  0.00    +0.000 A 
ATOM     31  C   UNL     1       9.251   3.511   0.000  0.00  0.00    +0.000 A 
ATOM     32  C   UNL     1       7.766   3.517   0.000  0.00  0.00    +0.000 A 
ATOM     33  C   UNL     1       8.510   3.946   0.000  0.00  0.00    +0.000 A 
BRANCH  26  36
ATOM     34  O   UNL     1      12.810   1.414   0.000  0.00  0.00    +0.000 OA
ATOM     35  O   UNL     1      12.810  -0.236   0.000  0.00  0.00    +0.000 OA
ATOM     36  C   UNL     1      10.667   1.002   0.000  0.00  0.00    +0.000 A 
ATOM     37  C   UNL     1      11.381   1.414   0.000  0.00  0.00    +0.000 A 
ATOM     38  C   UNL     1      10.667   0.177   0.000  0.00  0.00    +0.000 A 
ATOM     39  C   UNL     1      12.096   1.002   0.000  0.00  0.00    +0.000 A 
ATOM     40  C   UNL     1      11.381  -0.236   0.000  0.00  0.00    +0.000 A 
ATOM     41  C   UNL     1      12.096   0.177   0.000  0.00  0.00    +0.000 A 
ENDBRANCH  26  36
ENDBRANCH  20  25
ENDBRANCH   8  20
BRANCH   7  42
ATOM     42  C   UNL     1       6.380   0.177   0.000  0.00  0.00    +0.000 C 
BRANCH  42  43
ATOM     43  O   UNL     1       5.665  -0.236   0.000  0.00  0.00    +0.000 OA
BRANCH  43  48
ATOM     44  O   UNL     1       4.236  -0.236   0.000  0.00  0.00    +0.000 OA
ATOM     45  O   UNL     1       5.665   1.414   0.000  0.00  0.00    +0.000 OA
ATOM     46  O   UNL     1       4.236   2.239   0.000  0.00  0.00    +0.000 OA
ATOM     47  O   UNL     1       2.808   1.414   0.000  0.00  0.00    +0.000 OA
ATOM     48  C   UNL     1       4.951   0.177   0.000  0.00  0.00    +0.000 C 
ATOM     49  C   UNL     1       4.951   1.002   0.000  0.00  0.00    +0.000 C 
ATOM     50  C   UNL     1       4.236   1.414   0.000  0.00  0.00    +0.000 C 
ATOM     51  C   UNL     1       3.522   1.002   0.000  0.00  0.00    +0.000 C 
ATOM     52  C   UNL     1       3.522   0.177   0.000  0.00  0.00    +0.000 C 
BRANCH  52  54
ATOM     53  O   UNL     1       2.093   0.177   0.000  0.00  0.00    +0.000 OA
ATOM     54  C   UNL     1       2.808  -0.236   0.000  0.00  0.00    +0.000 C 
ENDBRANCH  52  54
ENDBRANCH  43  48
ENDBRANCH  42  43
ENDBRANCH   7  42
TORSDOF 9
