REMARK  Name = 73092145
REMARK  16 active torsions:
REMARK  status: ('A' for Active; 'I' for Inactive)
REMARK    1  A    between atoms: O_2  and  C_19
REMARK    2  A    between atoms: O_2  and  C_25
REMARK    3  A    between atoms: O_4  and  C_23
REMARK    4  A    between atoms: O_4  and  C_28
REMARK    5  A    between atoms: O_11  and  C_37
REMARK    6  A    between atoms: O_12  and  C_38
REMARK    7  A    between atoms: O_14  and  C_39
REMARK    8  A    between atoms: O_16  and  C_40
REMARK    9  A    between atoms: O_17  and  C_43
REMARK   10  A    between atoms: O_18  and  C_45
REMARK   11  A    between atoms: C_21  and  C_24
REMARK   12  A    between atoms: C_25  and  C_26
REMARK   13  A    between atoms: C_26  and  C_27
REMARK   14  A    between atoms: C_27  and  C_29
REMARK   15  A    between atoms: C_29  and  C_36
REMARK   16  A    between atoms: C_30  and  C_35
REMARK                            x       y       z     vdW  Elec       q    Type
REMARK                         _______ _______ _______ _____ _____    ______ ____
ROOT
ATOM      1  O   UNL     1       7.366   2.573   0.000  0.00  0.00    +0.000 OA
ATOM      2  O   UNL     1       5.222   1.335   0.000  0.00  0.00    +0.000 OA
ATOM      3  C   UNL     1       6.651   1.335   0.000  0.00  0.00    +0.000 A 
ATOM      4  C   UNL     1       7.366   1.748   0.000  0.00  0.00    +0.000 A 
ATOM      5  C   UNL     1       5.937   1.748   0.000  0.00  0.00    +0.000 A 
ATOM      6  C   UNL     1       5.937   2.573   0.000  0.00  0.00    +0.000 A 
ATOM      7  C   UNL     1       6.651   2.985   0.000  0.00  0.00    +0.000 A 
ATOM      8  C   UNL     1       5.186   2.991   0.000  0.00  0.00    +0.000 A 
ATOM      9  C   UNL     1       6.665   3.845   0.000  0.00  0.00    +0.000 A 
ATOM     10  C   UNL     1       5.179   3.850   0.000  0.00  0.00    +0.000 A 
ATOM     11  C   UNL     1       5.924   4.280   0.000  0.00  0.00    +0.000 A 
ENDROOT
BRANCH   4  12
ATOM     12  C   UNL     1       8.080   1.335   0.000  0.00  0.00    +0.000 A 
ATOM     13  C   UNL     1       8.795   1.748   0.000  0.00  0.00    +0.000 A 
ATOM     14  C   UNL     1       8.080   0.510   0.000  0.00  0.00    +0.000 A 
ATOM     15  C   UNL     1       9.509   1.335   0.000  0.00  0.00    +0.000 A 
ATOM     16  C   UNL     1       8.795   0.098   0.000  0.00  0.00    +0.000 A 
ATOM     17  C   UNL     1       9.509   0.510   0.000  0.00  0.00    +0.000 A 
BRANCH  17  18
ATOM     18  O   UNL     1      10.224   0.098   0.000  0.00  0.00    +0.000 OA
ATOM     19  C   UNL     1      10.224  -0.727   0.000  0.00  0.00    +0.000 C 
ENDBRANCH  17  18
BRANCH  15  20
ATOM     20  O   UNL     1      10.224   1.748   0.000  0.00  0.00    +0.000 OA
ATOM     21  C   UNL     1      10.224   2.573   0.000  0.00  0.00    +0.000 C 
ENDBRANCH  15  20
ENDBRANCH   4  12
BRANCH   9  22
ATOM     22  O   UNL     1       7.384   4.249   0.000  0.00  0.00    +0.000 OA
ATOM     23  C   UNL     1       7.393   5.074   0.000  0.00  0.00    +0.000 C 
ENDBRANCH   9  22
BRANCH  11  24
ATOM     24  O   UNL     1       5.927   5.105   0.000  0.00  0.00    +0.000 OA
ATOM     25  C   UNL     1       5.214   5.520   0.000  0.00  0.00    +0.000 C 
ENDBRANCH  11  24
BRANCH  10  26
ATOM     26  O   UNL     1       4.463   4.260   0.000  0.00  0.00    +0.000 OA
ATOM     27  C   UNL     1       4.460   5.085   0.000  0.00  0.00    +0.000 C 
ENDBRANCH  10  26
BRANCH   8  28
ATOM     28  O   UNL     1       4.476   2.570   0.000  0.00  0.00    +0.000 OA
ATOM     29  C   UNL     1       3.757   2.974   0.000  0.00  0.00    +0.000 C 
ENDBRANCH   8  28
BRANCH   3  30
ATOM     30  O   UNL     1       6.651   0.510   0.000  0.00  0.00    +0.000 OA
BRANCH  30  38
ATOM     31  O   UNL     1       5.222   0.510   0.000  0.00  0.00    +0.000 OA
ATOM     32  O   UNL     1       5.222  -1.965   0.000  0.00  0.00    +0.000 OA
ATOM     33  O   UNL     1       6.651  -1.140   0.000  0.00  0.00    +0.000 OA
ATOM     34  C   UNL     1       4.508  -0.727   0.000  0.00  0.00    +0.000 C 
ATOM     35  C   UNL     1       5.222  -1.140   0.000  0.00  0.00    +0.000 C 
ATOM     36  C   UNL     1       4.508   0.098   0.000  0.00  0.00    +0.000 C 
ATOM     37  C   UNL     1       5.937  -0.727   0.000  0.00  0.00    +0.000 C 
ATOM     38  C   UNL     1       5.937   0.098   0.000  0.00  0.00    +0.000 C 
BRANCH  36  40
ATOM     39  O   UNL     1       3.079   0.098   0.000  0.00  0.00    +0.000 OA
ATOM     40  C   UNL     1       3.793   0.510   0.000  0.00  0.00    +0.000 C 
ENDBRANCH  36  40
BRANCH  34  41
ATOM     41  O   UNL     1       3.793  -1.140   0.000  0.00  0.00    +0.000 OA
BRANCH  41  43
ATOM     42  O   UNL     1       4.508  -2.377   0.000  0.00  0.00    +0.000 OA
ATOM     43  C   UNL     1       3.793  -1.965   0.000  0.00  0.00    +0.000 C 
BRANCH  43  44
ATOM     44  C   UNL     1       3.079  -2.377   0.000  0.00  0.00    +0.000 C 
BRANCH  44  46
ATOM     45  O   UNL     1       2.254  -3.202   0.000  0.00  0.00    +0.000 OA
ATOM     46  C   UNL     1       3.079  -3.202   0.000  0.00  0.00    +0.000 C 
ATOM     47  C   UNL     1       3.904  -3.202   0.000  0.00  0.00    +0.000 C 
BRANCH  46  48
ATOM     48  C   UNL     1       3.079  -4.027   0.000  0.00  0.00    +0.000 C 
BRANCH  48  51
ATOM     49  O   UNL     1       2.364  -5.265   0.000  0.00  0.00    +0.000 OA
ATOM     50  O   UNL     1       1.650  -4.027   0.000  0.00  0.00    +0.000 OA
ATOM     51  C   UNL     1       2.364  -4.440   0.000  0.00  0.00    +0.000 C 
ENDBRANCH  48  51
ENDBRANCH  46  48
ENDBRANCH  44  46
ENDBRANCH  43  44
ENDBRANCH  41  43
ENDBRANCH  34  41
ENDBRANCH  30  38
ENDBRANCH   3  30
TORSDOF 16
