REMARK  Name = 5379400
REMARK  4 active torsions:
REMARK  status: ('A' for Active; 'I' for Inactive)
REMARK    1  A    between atoms: O_4  and  C_13
REMARK    2  A    between atoms: O_5  and  C_15
REMARK    3  A    between atoms: O_6  and  C_21
REMARK    4  A    between atoms: C_10  and  C_12
REMARK                            x       y       z     vdW  Elec       q    Type
REMARK                         _______ _______ _______ _____ _____    ______ ____
ROOT
ATOM      1  O   UNL     1       5.278  -0.745   0.000  0.00  0.00    +0.000 OA
ATOM      2  O   UNL     1       3.836   1.758   0.000  0.00  0.00    +0.000 OA
ATOM      3  O   UNL     1       5.278   1.730   0.000  0.00  0.00    +0.000 OA
ATOM      4  C   UNL     1       4.564   0.492   0.000  0.00  0.00    +0.000 A 
ATOM      5  C   UNL     1       5.993  -0.333   0.000  0.00  0.00    +0.000 A 
ATOM      6  C   UNL     1       4.564  -0.333   0.000  0.00  0.00    +0.000 A 
ATOM      7  C   UNL     1       5.993   0.492   0.000  0.00  0.00    +0.000 A 
ATOM      8  C   UNL     1       5.278   0.905   0.000  0.00  0.00    +0.000 A 
ATOM      9  C   UNL     1       3.826  -0.774   0.000  0.00  0.00    +0.000 A 
ATOM     10  C   UNL     1       3.826   0.934   0.000  0.00  0.00    +0.000 A 
ATOM     11  C   UNL     1       3.079  -0.350   0.000  0.00  0.00    +0.000 A 
ATOM     12  C   UNL     1       3.079   0.510   0.000  0.00  0.00    +0.000 A 
ENDROOT
BRANCH   5  15
ATOM     13  O   UNL     1       8.917  -0.494   0.000  0.00  0.00    +0.000 OA
ATOM     14  O   UNL     1       8.917  -1.821   0.000  0.00  0.00    +0.000 OA
ATOM     15  C   UNL     1       6.707  -0.745   0.000  0.00  0.00    +0.000 A 
ATOM     16  C   UNL     1       7.422  -0.333   0.000  0.00  0.00    +0.000 A 
ATOM     17  C   UNL     1       8.136  -0.745   0.000  0.00  0.00    +0.000 A 
ATOM     18  C   UNL     1       8.136  -1.570   0.000  0.00  0.00    +0.000 A 
ATOM     19  C   UNL     1       6.707  -1.570   0.000  0.00  0.00    +0.000 A 
ATOM     20  C   UNL     1       7.422  -1.983   0.000  0.00  0.00    +0.000 A 
ATOM     21  C   UNL     1       9.398  -1.158   0.000  0.00  0.00    +0.000 C 
ENDBRANCH   5  15
BRANCH   7  22
ATOM     22  O   UNL     1       6.707   0.905   0.000  0.00  0.00    +0.000 OA
ATOM     23  C   UNL     1       6.707   1.730   0.000  0.00  0.00    +0.000 C 
ENDBRANCH   7  22
BRANCH   9  24
ATOM     24  O   UNL     1       3.836  -1.599   0.000  0.00  0.00    +0.000 OA
ATOM     25  C   UNL     1       3.126  -2.019   0.000  0.00  0.00    +0.000 C 
ENDBRANCH   9  24
BRANCH  11  26
ATOM     26  O   UNL     1       2.366  -0.765   0.000  0.00  0.00    +0.000 OA
ATOM     27  C   UNL     1       1.650  -0.355   0.000  0.00  0.00    +0.000 C 
ENDBRANCH  11  26
TORSDOF 4
