REMARK  Name = 131834894
REMARK  5 active torsions:
REMARK  status: ('A' for Active; 'I' for Inactive)
REMARK    1  A    between atoms: O_6  and  C_21
REMARK    2  A    between atoms: O_11  and  C_34
REMARK    3  A    between atoms: C_15  and  C_18
REMARK    4  A    between atoms: C_17  and  C_19
REMARK    5  A    between atoms: C_26  and  C_29
REMARK                            x       y       z     vdW  Elec       q    Type
REMARK                         _______ _______ _______ _____ _____    ______ ____
ROOT
ATOM      1  O   UNL     1       6.380   1.536   0.000  0.00  0.00    +0.000 OA
ATOM      2  O   UNL     1       7.832  -0.967   0.000  0.00  0.00    +0.000 OA
ATOM      3  O   UNL     1       7.822   1.565   0.000  0.00  0.00    +0.000 OA
ATOM      4  C   UNL     1       5.665   0.299   0.000  0.00  0.00    +0.000 A 
ATOM      5  C   UNL     1       6.380   0.711   0.000  0.00  0.00    +0.000 A 
ATOM      6  C   UNL     1       5.665  -0.526   0.000  0.00  0.00    +0.000 A 
ATOM      7  C   UNL     1       7.094   0.299   0.000  0.00  0.00    +0.000 A 
ATOM      8  C   UNL     1       6.380  -0.939   0.000  0.00  0.00    +0.000 A 
ATOM      9  C   UNL     1       7.094  -0.526   0.000  0.00  0.00    +0.000 A 
ATOM     10  C   UNL     1       7.832   0.740   0.000  0.00  0.00    +0.000 A 
ATOM     11  C   UNL     1       8.579  -0.543   0.000  0.00  0.00    +0.000 A 
ATOM     12  C   UNL     1       8.579   0.316   0.000  0.00  0.00    +0.000 A 
ENDROOT
BRANCH   4  19
ATOM     13  O   UNL     1       4.236   0.299   0.000  0.00  0.00    +0.000 OA
ATOM     14  O   UNL     1       5.665   1.949   0.000  0.00  0.00    +0.000 OA
ATOM     15  O   UNL     1       4.236   2.774   0.000  0.00  0.00    +0.000 OA
ATOM     16  O   UNL     1       2.808   1.949   0.000  0.00  0.00    +0.000 OA
ATOM     17  C   UNL     1       4.951   1.536   0.000  0.00  0.00    +0.000 C 
ATOM     18  C   UNL     1       4.236   1.949   0.000  0.00  0.00    +0.000 C 
ATOM     19  C   UNL     1       4.951   0.711   0.000  0.00  0.00    +0.000 C 
ATOM     20  C   UNL     1       3.522   1.536   0.000  0.00  0.00    +0.000 C 
ATOM     21  C   UNL     1       3.522   0.711   0.000  0.00  0.00    +0.000 C 
BRANCH  21  23
ATOM     22  O   UNL     1       2.093   0.711   0.000  0.00  0.00    +0.000 OA
ATOM     23  C   UNL     1       2.808   0.299   0.000  0.00  0.00    +0.000 C 
ENDBRANCH  21  23
ENDBRANCH   4  19
BRANCH  11  26
ATOM     24  O   UNL     1       8.573  -2.193   0.000  0.00  0.00    +0.000 OA
ATOM     25  O   UNL     1      11.437  -0.554   0.000  0.00  0.00    +0.000 OA
ATOM     26  C   UNL     1       9.292  -0.959   0.000  0.00  0.00    +0.000 A 
ATOM     27  C   UNL     1       9.289  -1.784   0.000  0.00  0.00    +0.000 A 
ATOM     28  C   UNL     1      10.008  -0.549   0.000  0.00  0.00    +0.000 A 
ATOM     29  C   UNL     1      10.721  -0.964   0.000  0.00  0.00    +0.000 A 
ATOM     30  C   UNL     1      10.002  -2.199   0.000  0.00  0.00    +0.000 A 
ATOM     31  C   UNL     1      10.718  -1.789   0.000  0.00  0.00    +0.000 A 
BRANCH  31  32
ATOM     32  O   UNL     1      11.431  -2.204   0.000  0.00  0.00    +0.000 OA
ATOM     33  C   UNL     1      11.428  -3.030   0.000  0.00  0.00    +0.000 C 
ENDBRANCH  31  32
ENDBRANCH  11  26
BRANCH   6  34
ATOM     34  O   UNL     1       4.951  -0.939   0.000  0.00  0.00    +0.000 OA
ATOM     35  C   UNL     1       4.951  -1.764   0.000  0.00  0.00    +0.000 C 
ENDBRANCH   6  34
TORSDOF 5
