REMARK  Name = 131834214
REMARK  4 active torsions:
REMARK  status: ('A' for Active; 'I' for Inactive)
REMARK    1  A    between atoms: O_3  and  C_14
REMARK    2  A    between atoms: O_7  and  C_23
REMARK    3  A    between atoms: C_8  and  C_12
REMARK    4  A    between atoms: C_19  and  C_23
REMARK                            x       y       z     vdW  Elec       q    Type
REMARK                         _______ _______ _______ _____ _____    ______ ____
ROOT
ATOM      1  O   UNL     1       5.006  -0.223   0.000  0.00  0.00    +0.000 OA
ATOM      2  O   UNL     1       6.435   1.427   0.000  0.00  0.00    +0.000 OA
ATOM      3  O   UNL     1       3.564   2.280   0.000  0.00  0.00    +0.000 OA
ATOM      4  O   UNL     1       2.094  -0.243   0.000  0.00  0.00    +0.000 OA
ATOM      5  C   UNL     1       5.721   0.189   0.000  0.00  0.00    +0.000 C 
ATOM      6  C   UNL     1       5.721   1.014   0.000  0.00  0.00    +0.000 C 
ATOM      7  C   UNL     1       5.006   1.427   0.000  0.00  0.00    +0.000 C 
ATOM      8  C   UNL     1       4.292   1.014   0.000  0.00  0.00    +0.000 A 
ATOM      9  C   UNL     1       4.292   0.189   0.000  0.00  0.00    +0.000 A 
ATOM     10  C   UNL     1       3.554   1.456   0.000  0.00  0.00    +0.000 A 
ATOM     11  C   UNL     1       3.554  -0.252   0.000  0.00  0.00    +0.000 A 
ATOM     12  C   UNL     1       2.807   1.032   0.000  0.00  0.00    +0.000 A 
ATOM     13  C   UNL     1       2.807   0.172   0.000  0.00  0.00    +0.000 A 
ENDROOT
BRANCH   5  15
ATOM     14  O   UNL     1       7.150  -2.286   0.000  0.00  0.00    +0.000 OA
ATOM     15  C   UNL     1       6.435  -0.223   0.000  0.00  0.00    +0.000 A 
ATOM     16  C   UNL     1       6.435  -1.048   0.000  0.00  0.00    +0.000 A 
ATOM     17  C   UNL     1       7.150   0.189   0.000  0.00  0.00    +0.000 A 
ATOM     18  C   UNL     1       7.150  -1.461   0.000  0.00  0.00    +0.000 A 
ATOM     19  C   UNL     1       7.864  -1.048   0.000  0.00  0.00    +0.000 A 
ATOM     20  C   UNL     1       7.864  -0.223   0.000  0.00  0.00    +0.000 A 
BRANCH  16  21
ATOM     21  O   UNL     1       5.721  -1.461   0.000  0.00  0.00    +0.000 OA
ATOM     22  C   UNL     1       5.721  -2.286   0.000  0.00  0.00    +0.000 C 
ENDBRANCH  16  21
BRANCH  19  23
ATOM     23  C   UNL     1       8.579  -1.461   0.000  0.00  0.00    +0.000 C 
BRANCH  23  24
ATOM     24  O   UNL     1       9.293  -1.048   0.000  0.00  0.00    +0.000 OA
ATOM     25  C   UNL     1      10.008  -1.461   0.000  0.00  0.00    +0.000 C 
ENDBRANCH  23  24
ENDBRANCH  19  23
ENDBRANCH   5  15
TORSDOF 4
