REMARK  Name = 44259891
REMARK  7 active torsions:
REMARK  status: ('A' for Active; 'I' for Inactive)
REMARK    1  A    between atoms: O_2  and  C_18
REMARK    2  A    between atoms: O_2  and  C_20
REMARK    3  A    between atoms: O_8  and  C_21
REMARK    4  A    between atoms: O_10  and  C_28
REMARK    5  A    between atoms: O_13  and  C_35
REMARK    6  A    between atoms: C_17  and  C_19
REMARK    7  A    between atoms: C_27  and  C_29
REMARK                            x       y       z     vdW  Elec       q    Type
REMARK                         _______ _______ _______ _____ _____    ______ ____
ROOT
ATOM      1  O   UNL     1       7.114   0.984   0.000  0.00  0.00    +0.000 OA
ATOM      2  O   UNL     1       4.225   0.998   0.000  0.00  0.00    +0.000 OA
ATOM      3  O   UNL     1       4.975   2.230   0.000  0.00  0.00    +0.000 OA
ATOM      4  C   UNL     1       5.665  -0.717   0.000  0.00  0.00    +0.000 A 
ATOM      5  C   UNL     1       4.923  -0.285   0.000  0.00  0.00    +0.000 A 
ATOM      6  C   UNL     1       6.408  -0.285   0.000  0.00  0.00    +0.000 A 
ATOM      7  C   UNL     1       6.398   0.574   0.000  0.00  0.00    +0.000 A 
ATOM      8  C   UNL     1       5.685   0.990   0.000  0.00  0.00    +0.000 A 
ATOM      9  C   UNL     1       4.933   0.574   0.000  0.00  0.00    +0.000 A 
ATOM     10  C   UNL     1       5.688   1.815   0.000  0.00  0.00    +0.000 A 
ATOM     11  C   UNL     1       7.117   1.809   0.000  0.00  0.00    +0.000 A 
ATOM     12  C   UNL     1       6.404   2.224   0.000  0.00  0.00    +0.000 A 
ENDROOT
BRANCH  11  14
ATOM     13  O   UNL     1       8.543   0.979   0.000  0.00  0.00    +0.000 OA
ATOM     14  C   UNL     1       7.833   2.219   0.000  0.00  0.00    +0.000 A 
ATOM     15  C   UNL     1       8.546   1.804   0.000  0.00  0.00    +0.000 A 
ATOM     16  C   UNL     1       7.836   3.044   0.000  0.00  0.00    +0.000 A 
ATOM     17  C   UNL     1       9.262   2.213   0.000  0.00  0.00    +0.000 A 
ATOM     18  C   UNL     1       8.552   3.454   0.000  0.00  0.00    +0.000 A 
ATOM     19  C   UNL     1       9.265   3.038   0.000  0.00  0.00    +0.000 A 
BRANCH  19  20
ATOM     20  O   UNL     1       9.981   3.448   0.000  0.00  0.00    +0.000 OA
ATOM     21  C   UNL     1       9.985   4.273   0.000  0.00  0.00    +0.000 C 
ENDBRANCH  19  20
ENDBRANCH  11  14
BRANCH   5  22
ATOM     22  O   UNL     1       4.205  -0.692   0.000  0.00  0.00    +0.000 OA
ATOM     23  C   UNL     1       3.494  -0.274   0.000  0.00  0.00    +0.000 C 
ENDBRANCH   5  22
BRANCH  12  24
ATOM     24  O   UNL     1       6.407   3.049   0.000  0.00  0.00    +0.000 OA
ATOM     25  C   UNL     1       5.695   3.465   0.000  0.00  0.00    +0.000 C 
ENDBRANCH  12  24
BRANCH   4  26
ATOM     26  O   UNL     1       5.665  -1.542   0.000  0.00  0.00    +0.000 OA
BRANCH  26  35
ATOM     27  O   UNL     1       4.236  -1.542   0.000  0.00  0.00    +0.000 OA
ATOM     28  O   UNL     1       4.236  -4.017   0.000  0.00  0.00    +0.000 OA
ATOM     29  O   UNL     1       2.808  -3.192   0.000  0.00  0.00    +0.000 OA
ATOM     30  O   UNL     1       5.665  -3.192   0.000  0.00  0.00    +0.000 OA
ATOM     31  C   UNL     1       4.236  -3.192   0.000  0.00  0.00    +0.000 C 
ATOM     32  C   UNL     1       3.522  -2.780   0.000  0.00  0.00    +0.000 C 
ATOM     33  C   UNL     1       4.951  -2.780   0.000  0.00  0.00    +0.000 C 
ATOM     34  C   UNL     1       3.522  -1.955   0.000  0.00  0.00    +0.000 C 
ATOM     35  C   UNL     1       4.951  -1.955   0.000  0.00  0.00    +0.000 C 
BRANCH  34  37
ATOM     36  O   UNL     1       2.093  -1.955   0.000  0.00  0.00    +0.000 OA
ATOM     37  C   UNL     1       2.808  -1.542   0.000  0.00  0.00    +0.000 C 
ENDBRANCH  34  37
ENDBRANCH  26  35
ENDBRANCH   4  26
TORSDOF 7
