REMARK  Name = 101938903
REMARK  14 active torsions:
REMARK  status: ('A' for Active; 'I' for Inactive)
REMARK    1  A    between atoms: O_1  and  C_18
REMARK    2  A    between atoms: O_1  and  C_20
REMARK    3  A    between atoms: O_7  and  C_23
REMARK    4  A    between atoms: O_7  and  C_28
REMARK    5  A    between atoms: O_9  and  C_26
REMARK    6  A    between atoms: O_9  and  C_29
REMARK    7  A    between atoms: O_12  and  C_43
REMARK    8  A    between atoms: C_17  and  C_26
REMARK    9  A    between atoms: C_25  and  C_27
REMARK   10  A    between atoms: C_29  and  C_34
REMARK   11  A    between atoms: C_35  and  C_37
REMARK   12  A    between atoms: C_36  and  C_38
REMARK   13  A    between atoms: C_39  and  C_42
REMARK   14  A    between atoms: C_42  and  C_46
REMARK                            x       y       z     vdW  Elec       q    Type
REMARK                         _______ _______ _______ _____ _____    ______ ____
ROOT
ATOM      1  O   UNL     1       4.236  -1.596   0.000  0.00  0.00    +0.000 OA
ATOM      2  O   UNL     1       4.236  -4.071   0.000  0.00  0.00    +0.000 OA
ATOM      3  O   UNL     1       2.808  -3.246   0.000  0.00  0.00    +0.000 OA
ATOM      4  C   UNL     1       4.951  -2.833   0.000  0.00  0.00    +0.000 C 
ATOM      5  C   UNL     1       4.236  -3.246   0.000  0.00  0.00    +0.000 C 
ATOM      6  C   UNL     1       3.522  -2.833   0.000  0.00  0.00    +0.000 C 
ATOM      7  C   UNL     1       4.951  -2.008   0.000  0.00  0.00    +0.000 C 
ATOM      8  C   UNL     1       3.522  -2.008   0.000  0.00  0.00    +0.000 C 
ENDROOT
BRANCH   8  10
ATOM      9  O   UNL     1       2.093  -2.008   0.000  0.00  0.00    +0.000 OA
ATOM     10  C   UNL     1       2.808  -1.596   0.000  0.00  0.00    +0.000 C 
ENDBRANCH   8  10
BRANCH   4  11
ATOM     11  O   UNL     1       5.665  -3.246   0.000  0.00  0.00    +0.000 OA
BRANCH  11  17
ATOM     12  O   UNL     1       6.466  -2.013   0.000  0.00  0.00    +0.000 OA
ATOM     13  O   UNL     1       8.400  -2.143   0.000  0.00  0.00    +0.000 OA
ATOM     14  O   UNL     1       7.305  -3.976   0.000  0.00  0.00    +0.000 OA
ATOM     15  C   UNL     1       7.686  -2.556   0.000  0.00  0.00    +0.000 C 
ATOM     16  C   UNL     1       7.133  -3.169   0.000  0.00  0.00    +0.000 C 
ATOM     17  C   UNL     1       6.380  -2.833   0.000  0.00  0.00    +0.000 C 
ATOM     18  C   UNL     1       7.273  -1.841   0.000  0.00  0.00    +0.000 C 
BRANCH  15  19
ATOM     19  C   UNL     1       8.299  -3.108   0.000  0.00  0.00    +0.000 C 
BRANCH  19  20
ATOM     20  O   UNL     1       9.083  -2.853   0.000  0.00  0.00    +0.000 OA
BRANCH  20  22
ATOM     21  O   UNL     1       9.525  -4.212   0.000  0.00  0.00    +0.000 OA
ATOM     22  C   UNL     1       9.696  -3.405   0.000  0.00  0.00    +0.000 C 
BRANCH  22  23
ATOM     23  C   UNL     1      10.481  -3.150   0.000  0.00  0.00    +0.000 C 
ATOM     24  C   UNL     1      11.094  -3.702   0.000  0.00  0.00    +0.000 C 
BRANCH  24  26
ATOM     25  O   UNL     1      14.232  -2.682   0.000  0.00  0.00    +0.000 OA
ATOM     26  C   UNL     1      11.879  -3.447   0.000  0.00  0.00    +0.000 A 
ATOM     27  C   UNL     1      12.492  -3.999   0.000  0.00  0.00    +0.000 A 
ATOM     28  C   UNL     1      12.050  -2.640   0.000  0.00  0.00    +0.000 A 
ATOM     29  C   UNL     1      13.276  -3.744   0.000  0.00  0.00    +0.000 A 
ATOM     30  C   UNL     1      12.835  -2.385   0.000  0.00  0.00    +0.000 A 
ATOM     31  C   UNL     1      13.448  -2.937   0.000  0.00  0.00    +0.000 A 
BRANCH  29  32
ATOM     32  O   UNL     1      13.889  -4.296   0.000  0.00  0.00    +0.000 OA
ATOM     33  C   UNL     1      13.718  -5.103   0.000  0.00  0.00    +0.000 C 
ENDBRANCH  29  32
ENDBRANCH  24  26
ENDBRANCH  22  23
ENDBRANCH  20  22
ENDBRANCH  19  20
ENDBRANCH  15  19
ENDBRANCH  11  17
ENDBRANCH   4  11
BRANCH   7  34
ATOM     34  O   UNL     1       5.665  -1.596   0.000  0.00  0.00    +0.000 OA
BRANCH  34  35
ATOM     35  C   UNL     1       5.665  -0.771   0.000  0.00  0.00    +0.000 A 
ATOM     36  C   UNL     1       6.380  -0.358   0.000  0.00  0.00    +0.000 A 
ATOM     37  C   UNL     1       4.951  -0.358   0.000  0.00  0.00    +0.000 A 
ATOM     38  C   UNL     1       6.380   0.467   0.000  0.00  0.00    +0.000 A 
ATOM     39  C   UNL     1       4.951   0.467   0.000  0.00  0.00    +0.000 A 
ATOM     40  C   UNL     1       5.665   0.879   0.000  0.00  0.00    +0.000 A 
BRANCH  40  41
ATOM     41  C   UNL     1       5.665   1.704   0.000  0.00  0.00    +0.000 C 
ATOM     42  C   UNL     1       6.380   2.117   0.000  0.00  0.00    +0.000 C 
BRANCH  42  44
ATOM     43  O   UNL     1       5.665   3.354   0.000  0.00  0.00    +0.000 OA
ATOM     44  C   UNL     1       6.380   2.942   0.000  0.00  0.00    +0.000 C 
BRANCH  44  47
ATOM     45  O   UNL     1       7.809   2.117   0.000  0.00  0.00    +0.000 OA
ATOM     46  O   UNL     1       9.238   4.592   0.000  0.00  0.00    +0.000 OA
ATOM     47  C   UNL     1       7.094   3.354   0.000  0.00  0.00    +0.000 A 
ATOM     48  C   UNL     1       7.809   2.942   0.000  0.00  0.00    +0.000 A 
ATOM     49  C   UNL     1       7.094   4.179   0.000  0.00  0.00    +0.000 A 
ATOM     50  C   UNL     1       8.523   3.354   0.000  0.00  0.00    +0.000 A 
ATOM     51  C   UNL     1       7.809   4.592   0.000  0.00  0.00    +0.000 A 
ATOM     52  C   UNL     1       8.523   4.179   0.000  0.00  0.00    +0.000 A 
ENDBRANCH  44  47
ENDBRANCH  42  44
ENDBRANCH  40  41
ENDBRANCH  34  35
ENDBRANCH   7  34
TORSDOF 14
