REMARK  Name = 131752754
REMARK  14 active torsions:
REMARK  status: ('A' for Active; 'I' for Inactive)
REMARK    1  A    between atoms: O_1  and  C_23
REMARK    2  A    between atoms: O_1  and  C_25
REMARK    3  A    between atoms: O_4  and  C_26
REMARK    4  A    between atoms: O_4  and  C_36
REMARK    5  A    between atoms: O_6  and  C_29
REMARK    6  A    between atoms: O_6  and  C_35
REMARK    7  A    between atoms: O_18  and  C_53
REMARK    8  A    between atoms: O_19  and  C_55
REMARK    9  A    between atoms: O_20  and  C_56
REMARK   10  A    between atoms: C_31  and  C_33
REMARK   11  A    between atoms: C_32  and  C_34
REMARK   12  A    between atoms: C_36  and  C_39
REMARK   13  A    between atoms: C_43  and  C_47
REMARK   14  A    between atoms: C_45  and  C_48
REMARK                            x       y       z     vdW  Elec       q    Type
REMARK                         _______ _______ _______ _____ _____    ______ ____
ROOT
ATOM      1  O   UNL     1       4.236  -0.515   0.000  0.00  0.00    +0.000 OA
ATOM      2  O   UNL     1       4.236  -2.990   0.000  0.00  0.00    +0.000 OA
ATOM      3  O   UNL     1       2.808  -2.165   0.000  0.00  0.00    +0.000 OA
ATOM      4  C   UNL     1       4.951  -1.753   0.000  0.00  0.00    +0.000 C 
ATOM      5  C   UNL     1       4.236  -2.165   0.000  0.00  0.00    +0.000 C 
ATOM      6  C   UNL     1       3.522  -1.753   0.000  0.00  0.00    +0.000 C 
ATOM      7  C   UNL     1       4.951  -0.928   0.000  0.00  0.00    +0.000 C 
ATOM      8  C   UNL     1       3.522  -0.928   0.000  0.00  0.00    +0.000 C 
ENDROOT
BRANCH   8  11
ATOM      9  O   UNL     1       2.093  -0.928   0.000  0.00  0.00    +0.000 OA
ATOM     10  O   UNL     1       2.808   0.310   0.000  0.00  0.00    +0.000 OA
ATOM     11  C   UNL     1       2.808  -0.515   0.000  0.00  0.00    +0.000 C 
ENDBRANCH   8  11
BRANCH   4  12
ATOM     12  O   UNL     1       5.665  -2.165   0.000  0.00  0.00    +0.000 OA
BRANCH  12  16
ATOM     13  O   UNL     1       4.951  -3.403   0.000  0.00  0.00    +0.000 OA
ATOM     14  O   UNL     1       7.094  -4.640   0.000  0.00  0.00    +0.000 OA
ATOM     15  O   UNL     1       5.665  -5.465   0.000  0.00  0.00    +0.000 OA
ATOM     16  C   UNL     1       5.665  -2.990   0.000  0.00  0.00    +0.000 C 
ATOM     17  C   UNL     1       6.380  -3.403   0.000  0.00  0.00    +0.000 C 
ATOM     18  C   UNL     1       6.380  -4.228   0.000  0.00  0.00    +0.000 C 
ATOM     19  C   UNL     1       5.665  -4.640   0.000  0.00  0.00    +0.000 C 
ATOM     20  C   UNL     1       4.951  -4.228   0.000  0.00  0.00    +0.000 C 
BRANCH  20  23
ATOM     21  O   UNL     1       3.522  -4.228   0.000  0.00  0.00    +0.000 OA
ATOM     22  O   UNL     1       4.236  -5.465   0.000  0.00  0.00    +0.000 OA
ATOM     23  C   UNL     1       4.236  -4.640   0.000  0.00  0.00    +0.000 C 
ENDBRANCH  20  23
BRANCH  17  24
ATOM     24  O   UNL     1       7.094  -2.990   0.000  0.00  0.00    +0.000 OA
BRANCH  24  26
ATOM     25  O   UNL     1       7.809  -4.228   0.000  0.00  0.00    +0.000 OA
ATOM     26  C   UNL     1       7.809  -3.403   0.000  0.00  0.00    +0.000 C 
BRANCH  26  27
ATOM     27  C   UNL     1       8.523  -2.990   0.000  0.00  0.00    +0.000 C 
ATOM     28  C   UNL     1       8.523  -2.165   0.000  0.00  0.00    +0.000 C 
BRANCH  28  30
ATOM     29  O   UNL     1      11.381  -0.515   0.000  0.00  0.00    +0.000 OA
ATOM     30  C   UNL     1       9.238  -1.753   0.000  0.00  0.00    +0.000 A 
ATOM     31  C   UNL     1       9.952  -2.165   0.000  0.00  0.00    +0.000 A 
ATOM     32  C   UNL     1       9.238  -0.928   0.000  0.00  0.00    +0.000 A 
ATOM     33  C   UNL     1      10.667  -1.753   0.000  0.00  0.00    +0.000 A 
ATOM     34  C   UNL     1       9.952  -0.515   0.000  0.00  0.00    +0.000 A 
ATOM     35  C   UNL     1      10.667  -0.928   0.000  0.00  0.00    +0.000 A 
BRANCH  33  36
ATOM     36  O   UNL     1      11.381  -2.165   0.000  0.00  0.00    +0.000 OA
ATOM     37  C   UNL     1      12.096  -1.753   0.000  0.00  0.00    +0.000 C 
ENDBRANCH  33  36
ENDBRANCH  28  30
ENDBRANCH  26  27
ENDBRANCH  24  26
ENDBRANCH  17  24
ENDBRANCH  12  16
ENDBRANCH   4  12
BRANCH   7  38
ATOM     38  O   UNL     1       5.665  -0.515   0.000  0.00  0.00    +0.000 OA
BRANCH  38  42
ATOM     39  O   UNL     1       7.114   2.011   0.000  0.00  0.00    +0.000 OA
ATOM     40  O   UNL     1       4.225   2.025   0.000  0.00  0.00    +0.000 OA
ATOM     41  O   UNL     1       4.975   3.257   0.000  0.00  0.00    +0.000 OA
ATOM     42  C   UNL     1       5.665   0.310   0.000  0.00  0.00    +0.000 A 
ATOM     43  C   UNL     1       6.408   0.742   0.000  0.00  0.00    +0.000 A 
ATOM     44  C   UNL     1       4.923   0.742   0.000  0.00  0.00    +0.000 A 
ATOM     45  C   UNL     1       6.398   1.602   0.000  0.00  0.00    +0.000 A 
ATOM     46  C   UNL     1       4.933   1.602   0.000  0.00  0.00    +0.000 A 
ATOM     47  C   UNL     1       5.685   2.017   0.000  0.00  0.00    +0.000 A 
ATOM     48  C   UNL     1       5.688   2.842   0.000  0.00  0.00    +0.000 A 
ATOM     49  C   UNL     1       7.117   2.836   0.000  0.00  0.00    +0.000 A 
ATOM     50  C   UNL     1       6.404   3.252   0.000  0.00  0.00    +0.000 A 
BRANCH  49  52
ATOM     51  O   UNL     1       9.981   4.475   0.000  0.00  0.00    +0.000 OA
ATOM     52  C   UNL     1       7.833   3.246   0.000  0.00  0.00    +0.000 A 
ATOM     53  C   UNL     1       7.836   4.071   0.000  0.00  0.00    +0.000 A 
ATOM     54  C   UNL     1       8.546   2.831   0.000  0.00  0.00    +0.000 A 
ATOM     55  C   UNL     1       9.262   3.240   0.000  0.00  0.00    +0.000 A 
ATOM     56  C   UNL     1       8.552   4.481   0.000  0.00  0.00    +0.000 A 
ATOM     57  C   UNL     1       9.265   4.066   0.000  0.00  0.00    +0.000 A 
BRANCH  55  58
ATOM     58  O   UNL     1       9.975   2.825   0.000  0.00  0.00    +0.000 OA
ATOM     59  C   UNL     1      10.691   3.235   0.000  0.00  0.00    +0.000 C 
ENDBRANCH  55  58
BRANCH  56  60
ATOM     60  O   UNL     1       8.556   5.306   0.000  0.00  0.00    +0.000 OA
ATOM     61  C   UNL     1       7.843   5.721   0.000  0.00  0.00    +0.000 C 
ENDBRANCH  56  60
ENDBRANCH  49  52
ENDBRANCH  38  42
ENDBRANCH   7  38
TORSDOF 14
