REMARK  Name = 131835071
REMARK  5 active torsions:
REMARK  status: ('A' for Active; 'I' for Inactive)
REMARK    1  A    between atoms: O_2  and  C_19
REMARK    2  A    between atoms: O_2  and  C_21
REMARK    3  A    between atoms: O_8  and  C_22
REMARK    4  A    between atoms: C_18  and  C_20
REMARK    5  A    between atoms: C_24  and  C_27
REMARK                            x       y       z     vdW  Elec       q    Type
REMARK                         _______ _______ _______ _____ _____    ______ ____
ROOT
ATOM      1  C   UNL     1       5.665  -1.473   0.000  0.00  0.00    +0.000 A 
ATOM      2  C   UNL     1       4.951  -1.061   0.000  0.00  0.00    +0.000 A 
ATOM      3  C   UNL     1       6.380  -1.061   0.000  0.00  0.00    +0.000 A 
ATOM      4  C   UNL     1       5.665   0.177   0.000  0.00  0.00    +0.000 A 
ATOM      5  C   UNL     1       4.951  -0.236   0.000  0.00  0.00    +0.000 A 
ATOM      6  C   UNL     1       6.380  -0.236   0.000  0.00  0.00    +0.000 A 
ENDROOT
BRANCH   4  13
ATOM      7  O   UNL     1       6.380   1.414   0.000  0.00  0.00    +0.000 OA
ATOM      8  O   UNL     1       4.236   1.002   0.000  0.00  0.00    +0.000 OA
ATOM      9  O   UNL     1       4.236   2.652   0.000  0.00  0.00    +0.000 OA
ATOM     10  O   UNL     1       4.933   3.915   0.000  0.00  0.00    +0.000 OA
ATOM     11  O   UNL     1       6.390   4.771   0.000  0.00  0.00    +0.000 OA
ATOM     12  O   UNL     1       7.853   3.926   0.000  0.00  0.00    +0.000 OA
ATOM     13  C   UNL     1       5.665   1.002   0.000  0.00  0.00    +0.000 A 
ATOM     14  C   UNL     1       4.951   1.414   0.000  0.00  0.00    +0.000 A 
ATOM     15  C   UNL     1       5.665   2.652   0.000  0.00  0.00    +0.000 A 
ATOM     16  C   UNL     1       6.380   2.239   0.000  0.00  0.00    +0.000 A 
ATOM     17  C   UNL     1       4.951   2.239   0.000  0.00  0.00    +0.000 A 
ATOM     18  C   UNL     1       5.652   3.511   0.000  0.00  0.00    +0.000 A 
ATOM     19  C   UNL     1       7.131   2.658   0.000  0.00  0.00    +0.000 A 
ATOM     20  C   UNL     1       6.393   3.946   0.000  0.00  0.00    +0.000 A 
ATOM     21  C   UNL     1       7.137   3.517   0.000  0.00  0.00    +0.000 A 
ENDBRANCH   4  13
BRANCH   2  22
ATOM     22  O   UNL     1       4.236  -1.473   0.000  0.00  0.00    +0.000 OA
ATOM     23  C   UNL     1       3.522  -1.061   0.000  0.00  0.00    +0.000 C 
ENDBRANCH   2  22
BRANCH   1  24
ATOM     24  O   UNL     1       5.665  -2.298   0.000  0.00  0.00    +0.000 OA
BRANCH  24  33
ATOM     25  O   UNL     1       4.236  -2.298   0.000  0.00  0.00    +0.000 OA
ATOM     26  O   UNL     1       4.236  -4.773   0.000  0.00  0.00    +0.000 OA
ATOM     27  O   UNL     1       2.808  -3.948   0.000  0.00  0.00    +0.000 OA
ATOM     28  O   UNL     1       5.665  -3.948   0.000  0.00  0.00    +0.000 OA
ATOM     29  C   UNL     1       4.236  -3.948   0.000  0.00  0.00    +0.000 C 
ATOM     30  C   UNL     1       3.522  -3.536   0.000  0.00  0.00    +0.000 C 
ATOM     31  C   UNL     1       4.951  -3.536   0.000  0.00  0.00    +0.000 C 
ATOM     32  C   UNL     1       3.522  -2.711   0.000  0.00  0.00    +0.000 C 
ATOM     33  C   UNL     1       4.951  -2.711   0.000  0.00  0.00    +0.000 C 
BRANCH  32  36
ATOM     34  O   UNL     1       2.093  -2.711   0.000  0.00  0.00    +0.000 OA
ATOM     35  O   UNL     1       2.808  -1.473   0.000  0.00  0.00    +0.000 OA
ATOM     36  C   UNL     1       2.808  -2.298   0.000  0.00  0.00    +0.000 C 
ENDBRANCH  32  36
ENDBRANCH  24  33
ENDBRANCH   1  24
TORSDOF 5
