REMARK  Name = 101938904
REMARK  13 active torsions:
REMARK  status: ('A' for Active; 'I' for Inactive)
REMARK    1  A    between atoms: O_1  and  C_17
REMARK    2  A    between atoms: O_1  and  C_19
REMARK    3  A    between atoms: O_7  and  C_22
REMARK    4  A    between atoms: O_7  and  C_27
REMARK    5  A    between atoms: O_9  and  C_25
REMARK    6  A    between atoms: O_9  and  C_28
REMARK    7  A    between atoms: C_16  and  C_25
REMARK    8  A    between atoms: C_24  and  C_26
REMARK    9  A    between atoms: C_28  and  C_33
REMARK   10  A    between atoms: C_34  and  C_36
REMARK   11  A    between atoms: C_35  and  C_37
REMARK   12  A    between atoms: C_38  and  C_41
REMARK   13  A    between atoms: C_41  and  C_44
REMARK                            x       y       z     vdW  Elec       q    Type
REMARK                         _______ _______ _______ _____ _____    ______ ____
ROOT
ATOM      1  O   UNL     1       4.236  -1.984   0.000  0.00  0.00    +0.000 OA
ATOM      2  O   UNL     1       4.236  -4.459   0.000  0.00  0.00    +0.000 OA
ATOM      3  O   UNL     1       2.808  -3.634   0.000  0.00  0.00    +0.000 OA
ATOM      4  C   UNL     1       4.951  -3.222   0.000  0.00  0.00    +0.000 C 
ATOM      5  C   UNL     1       4.236  -3.634   0.000  0.00  0.00    +0.000 C 
ATOM      6  C   UNL     1       3.522  -3.222   0.000  0.00  0.00    +0.000 C 
ATOM      7  C   UNL     1       4.951  -2.397   0.000  0.00  0.00    +0.000 C 
ATOM      8  C   UNL     1       3.522  -2.397   0.000  0.00  0.00    +0.000 C 
ENDROOT
BRANCH   8  10
ATOM      9  O   UNL     1       2.093  -2.397   0.000  0.00  0.00    +0.000 OA
ATOM     10  C   UNL     1       2.808  -1.984   0.000  0.00  0.00    +0.000 C 
ENDBRANCH   8  10
BRANCH   4  11
ATOM     11  O   UNL     1       5.665  -3.634   0.000  0.00  0.00    +0.000 OA
BRANCH  11  17
ATOM     12  O   UNL     1       6.466  -2.401   0.000  0.00  0.00    +0.000 OA
ATOM     13  O   UNL     1       8.400  -2.532   0.000  0.00  0.00    +0.000 OA
ATOM     14  O   UNL     1       7.305  -4.364   0.000  0.00  0.00    +0.000 OA
ATOM     15  C   UNL     1       7.686  -2.944   0.000  0.00  0.00    +0.000 C 
ATOM     16  C   UNL     1       7.133  -3.557   0.000  0.00  0.00    +0.000 C 
ATOM     17  C   UNL     1       6.380  -3.222   0.000  0.00  0.00    +0.000 C 
ATOM     18  C   UNL     1       7.273  -2.230   0.000  0.00  0.00    +0.000 C 
BRANCH  15  19
ATOM     19  C   UNL     1       8.299  -3.496   0.000  0.00  0.00    +0.000 C 
BRANCH  19  20
ATOM     20  O   UNL     1       9.083  -3.241   0.000  0.00  0.00    +0.000 OA
BRANCH  20  22
ATOM     21  O   UNL     1       9.525  -4.600   0.000  0.00  0.00    +0.000 OA
ATOM     22  C   UNL     1       9.696  -3.793   0.000  0.00  0.00    +0.000 C 
BRANCH  22  23
ATOM     23  C   UNL     1      10.481  -3.538   0.000  0.00  0.00    +0.000 C 
ATOM     24  C   UNL     1      11.094  -4.090   0.000  0.00  0.00    +0.000 C 
BRANCH  24  26
ATOM     25  O   UNL     1      14.232  -3.071   0.000  0.00  0.00    +0.000 OA
ATOM     26  C   UNL     1      11.879  -3.835   0.000  0.00  0.00    +0.000 A 
ATOM     27  C   UNL     1      12.492  -4.387   0.000  0.00  0.00    +0.000 A 
ATOM     28  C   UNL     1      12.050  -3.028   0.000  0.00  0.00    +0.000 A 
ATOM     29  C   UNL     1      13.276  -4.132   0.000  0.00  0.00    +0.000 A 
ATOM     30  C   UNL     1      12.835  -2.773   0.000  0.00  0.00    +0.000 A 
ATOM     31  C   UNL     1      13.448  -3.325   0.000  0.00  0.00    +0.000 A 
ENDBRANCH  24  26
ENDBRANCH  22  23
ENDBRANCH  20  22
ENDBRANCH  19  20
ENDBRANCH  15  19
ENDBRANCH  11  17
ENDBRANCH   4  11
BRANCH   7  32
ATOM     32  O   UNL     1       5.665  -1.984   0.000  0.00  0.00    +0.000 OA
BRANCH  32  33
ATOM     33  C   UNL     1       5.665  -1.159   0.000  0.00  0.00    +0.000 A 
ATOM     34  C   UNL     1       6.380  -0.747   0.000  0.00  0.00    +0.000 A 
ATOM     35  C   UNL     1       4.951  -0.747   0.000  0.00  0.00    +0.000 A 
ATOM     36  C   UNL     1       6.380   0.078   0.000  0.00  0.00    +0.000 A 
ATOM     37  C   UNL     1       4.951   0.078   0.000  0.00  0.00    +0.000 A 
ATOM     38  C   UNL     1       5.665   0.491   0.000  0.00  0.00    +0.000 A 
BRANCH  38  39
ATOM     39  C   UNL     1       5.665   1.316   0.000  0.00  0.00    +0.000 C 
ATOM     40  C   UNL     1       6.380   1.728   0.000  0.00  0.00    +0.000 C 
BRANCH  40  42
ATOM     41  O   UNL     1       5.665   2.966   0.000  0.00  0.00    +0.000 OA
ATOM     42  C   UNL     1       6.380   2.553   0.000  0.00  0.00    +0.000 C 
BRANCH  42  45
ATOM     43  O   UNL     1       7.809   1.728   0.000  0.00  0.00    +0.000 OA
ATOM     44  O   UNL     1       9.238   4.203   0.000  0.00  0.00    +0.000 OA
ATOM     45  C   UNL     1       7.094   2.966   0.000  0.00  0.00    +0.000 A 
ATOM     46  C   UNL     1       7.809   2.553   0.000  0.00  0.00    +0.000 A 
ATOM     47  C   UNL     1       7.094   3.791   0.000  0.00  0.00    +0.000 A 
ATOM     48  C   UNL     1       8.523   2.966   0.000  0.00  0.00    +0.000 A 
ATOM     49  C   UNL     1       7.809   4.203   0.000  0.00  0.00    +0.000 A 
ATOM     50  C   UNL     1       8.523   3.791   0.000  0.00  0.00    +0.000 A 
ENDBRANCH  42  45
ENDBRANCH  40  42
ENDBRANCH  38  39
ENDBRANCH  32  33
ENDBRANCH   7  32
TORSDOF 13
