REMARK  Name = 131835823
REMARK  3 active torsions:
REMARK  status: ('A' for Active; 'I' for Inactive)
REMARK    1  A    between atoms: O_3  and  C_14
REMARK    2  A    between atoms: O_5  and  C_19
REMARK    3  A    between atoms: C_6  and  C_11
REMARK                            x       y       z     vdW  Elec       q    Type
REMARK                         _______ _______ _______ _____ _____    ______ ____
ROOT
ATOM      1  O   UNL     1       5.278  -1.017   0.000  0.00  0.00    +0.000 OA
ATOM      2  O   UNL     1       5.278   1.458   0.000  0.00  0.00    +0.000 OA
ATOM      3  O   UNL     1       3.836   1.487   0.000  0.00  0.00    +0.000 OA
ATOM      4  C   UNL     1       5.993   0.221   0.000  0.00  0.00    +0.000 C 
ATOM      5  C   UNL     1       5.993  -0.605   0.000  0.00  0.00    +0.000 C 
ATOM      6  C   UNL     1       5.278   0.633   0.000  0.00  0.00    +0.000 C 
ATOM      7  C   UNL     1       4.564   0.221   0.000  0.00  0.00    +0.000 A 
ATOM      8  C   UNL     1       4.564  -0.605   0.000  0.00  0.00    +0.000 A 
ATOM      9  C   UNL     1       3.826  -1.046   0.000  0.00  0.00    +0.000 A 
ATOM     10  C   UNL     1       3.826   0.662   0.000  0.00  0.00    +0.000 A 
ATOM     11  C   UNL     1       3.079  -0.622   0.000  0.00  0.00    +0.000 A 
ATOM     12  C   UNL     1       3.079   0.238   0.000  0.00  0.00    +0.000 A 
ATOM     13  C   UNL     1       3.836  -1.871   0.000  0.00  0.00    +0.000 C 
ENDROOT
BRANCH   4  14
ATOM     14  C   UNL     1       6.707   0.633   0.000  0.00  0.00    +0.000 A 
ATOM     15  C   UNL     1       7.422   0.221   0.000  0.00  0.00    +0.000 A 
ATOM     16  C   UNL     1       6.707   1.458   0.000  0.00  0.00    +0.000 A 
ATOM     17  C   UNL     1       8.136   0.633   0.000  0.00  0.00    +0.000 A 
ATOM     18  C   UNL     1       7.422   1.871   0.000  0.00  0.00    +0.000 A 
ATOM     19  C   UNL     1       8.136   1.458   0.000  0.00  0.00    +0.000 A 
BRANCH  17  20
ATOM     20  O   UNL     1       8.851   0.221   0.000  0.00  0.00    +0.000 OA
ATOM     21  C   UNL     1       9.565   0.633   0.000  0.00  0.00    +0.000 C 
ENDBRANCH  17  20
ENDBRANCH   4  14
BRANCH  11  22
ATOM     22  O   UNL     1       2.366  -1.037   0.000  0.00  0.00    +0.000 OA
ATOM     23  C   UNL     1       1.650  -0.627   0.000  0.00  0.00    +0.000 C 
ENDBRANCH  11  22
TORSDOF 3
