REMARK  Name = 134819290
REMARK  5 active torsions:
REMARK  status: ('A' for Active; 'I' for Inactive)
REMARK    1  A    between atoms: O_2  and  C_15
REMARK    2  A    between atoms: O_2  and  C_17
REMARK    3  A    between atoms: O_7  and  C_25
REMARK    4  A    between atoms: C_16  and  C_23
REMARK    5  A    between atoms: C_21  and  C_27
REMARK                            x       y       z     vdW  Elec       q    Type
REMARK                         _______ _______ _______ _____ _____    ______ ____
ROOT
ATOM      1  O   UNL     1       7.131   1.354   0.000  0.00  0.00    +0.000 OA
ATOM      2  O   UNL     1       4.933   2.612   0.000  0.00  0.00    +0.000 OA
ATOM      3  C   UNL     1       5.665  -0.302   0.000  0.00  0.00    +0.000 A 
ATOM      4  C   UNL     1       6.380   0.111   0.000  0.00  0.00    +0.000 A 
ATOM      5  C   UNL     1       6.380   0.936   0.000  0.00  0.00    +0.000 A 
ATOM      6  C   UNL     1       5.665   1.348   0.000  0.00  0.00    +0.000 A 
ATOM      7  C   UNL     1       7.137   2.213   0.000  0.00  0.00    +0.000 C 
ATOM      8  C   UNL     1       4.951   0.111   0.000  0.00  0.00    +0.000 A 
ATOM      9  C   UNL     1       6.393   2.643   0.000  0.00  0.00    +0.000 C 
ATOM     10  C   UNL     1       4.951   0.936   0.000  0.00  0.00    +0.000 A 
ATOM     11  C   UNL     1       5.652   2.207   0.000  0.00  0.00    +0.000 C 
ATOM     12  C   UNL     1       7.094  -0.302   0.000  0.00  0.00    +0.000 C 
ATOM     13  C   UNL     1       4.236  -0.302   0.000  0.00  0.00    +0.000 C 
ENDROOT
BRANCH   7  15
ATOM     14  O   UNL     1       9.995   2.202   0.000  0.00  0.00    +0.000 OA
ATOM     15  C   UNL     1       7.853   2.623   0.000  0.00  0.00    +0.000 A 
ATOM     16  C   UNL     1       8.566   2.208   0.000  0.00  0.00    +0.000 A 
ATOM     17  C   UNL     1       7.856   3.448   0.000  0.00  0.00    +0.000 A 
ATOM     18  C   UNL     1       9.282   2.617   0.000  0.00  0.00    +0.000 A 
ATOM     19  C   UNL     1       8.572   3.858   0.000  0.00  0.00    +0.000 A 
ATOM     20  C   UNL     1       9.285   3.442   0.000  0.00  0.00    +0.000 A 
ENDBRANCH   7  15
BRANCH  10  21
ATOM     21  O   UNL     1       4.236   1.348   0.000  0.00  0.00    +0.000 OA
ATOM     22  C   UNL     1       3.522   0.936   0.000  0.00  0.00    +0.000 C 
ENDBRANCH  10  21
BRANCH   3  23
ATOM     23  O   UNL     1       5.665  -1.127   0.000  0.00  0.00    +0.000 OA
BRANCH  23  31
ATOM     24  O   UNL     1       4.236  -1.127   0.000  0.00  0.00    +0.000 OA
ATOM     25  O   UNL     1       4.236  -3.602   0.000  0.00  0.00    +0.000 OA
ATOM     26  O   UNL     1       5.665  -2.777   0.000  0.00  0.00    +0.000 OA
ATOM     27  O   UNL     1       2.808  -2.777   0.000  0.00  0.00    +0.000 OA
ATOM     28  C   UNL     1       4.236  -2.777   0.000  0.00  0.00    +0.000 C 
ATOM     29  C   UNL     1       4.951  -2.364   0.000  0.00  0.00    +0.000 C 
ATOM     30  C   UNL     1       3.522  -2.364   0.000  0.00  0.00    +0.000 C 
ATOM     31  C   UNL     1       4.951  -1.539   0.000  0.00  0.00    +0.000 C 
ATOM     32  C   UNL     1       3.522  -1.539   0.000  0.00  0.00    +0.000 C 
BRANCH  32  35
ATOM     33  O   UNL     1       2.093  -1.539   0.000  0.00  0.00    +0.000 OA
ATOM     34  O   UNL     1       2.808  -0.302   0.000  0.00  0.00    +0.000 OA
ATOM     35  C   UNL     1       2.808  -1.127   0.000  0.00  0.00    +0.000 C 
ENDBRANCH  32  35
ENDBRANCH  23  31
ENDBRANCH   3  23
TORSDOF 5
