REMARK  Name = 5487343
REMARK  8 active torsions:
REMARK  status: ('A' for Active; 'I' for Inactive)
REMARK    1  A    between atoms: O_1  and  C_16
REMARK    2  A    between atoms: O_1  and  C_19
REMARK    3  A    between atoms: O_5  and  C_24
REMARK    4  A    between atoms: O_5  and  C_28
REMARK    5  A    between atoms: O_10  and  C_26
REMARK    6  A    between atoms: O_10  and  C_30
REMARK    7  A    between atoms: C_18  and  C_26
REMARK    8  A    between atoms: C_38  and  C_39
REMARK                            x       y       z     vdW  Elec       q    Type
REMARK                         _______ _______ _______ _____ _____    ______ ____
ROOT
ATOM      1  O   UNL     1       5.665  -1.458   0.000  0.00  0.00    +0.000 OA
ATOM      2  O   UNL     1       3.522  -2.696   0.000  0.00  0.00    +0.000 OA
ATOM      3  O   UNL     1       3.522  -1.046   0.000  0.00  0.00    +0.000 OA
ATOM      4  C   UNL     1       4.951  -2.696   0.000  0.00  0.00    +0.000 C 
ATOM      5  C   UNL     1       4.236  -2.283   0.000  0.00  0.00    +0.000 C 
ATOM      6  C   UNL     1       5.665  -2.283   0.000  0.00  0.00    +0.000 C 
ATOM      7  C   UNL     1       4.236  -1.458   0.000  0.00  0.00    +0.000 C 
ATOM      8  C   UNL     1       4.951  -1.046   0.000  0.00  0.00    +0.000 C 
ENDROOT
BRANCH   4   9
ATOM      9  O   UNL     1       4.951  -3.521   0.000  0.00  0.00    +0.000 OA
BRANCH   9  14
ATOM     10  O   UNL     1       3.522  -3.521   0.000  0.00  0.00    +0.000 OA
ATOM     11  O   UNL     1       4.951  -5.171   0.000  0.00  0.00    +0.000 OA
ATOM     12  O   UNL     1       3.522  -5.996   0.000  0.00  0.00    +0.000 OA
ATOM     13  O   UNL     1       2.093  -5.171   0.000  0.00  0.00    +0.000 OA
ATOM     14  C   UNL     1       4.236  -3.933   0.000  0.00  0.00    +0.000 C 
ATOM     15  C   UNL     1       4.236  -4.758   0.000  0.00  0.00    +0.000 C 
ATOM     16  C   UNL     1       3.522  -5.171   0.000  0.00  0.00    +0.000 C 
ATOM     17  C   UNL     1       2.808  -4.758   0.000  0.00  0.00    +0.000 C 
ATOM     18  C   UNL     1       2.808  -3.933   0.000  0.00  0.00    +0.000 C 
ATOM     19  C   UNL     1       2.093  -3.521   0.000  0.00  0.00    +0.000 C 
ENDBRANCH   9  14
ENDBRANCH   4   9
BRANCH   8  20
ATOM     20  O   UNL     1       4.951  -0.221   0.000  0.00  0.00    +0.000 OA
BRANCH  20  24
ATOM     21  O   UNL     1       6.369   2.297   0.000  0.00  0.00    +0.000 OA
ATOM     22  O   UNL     1       7.871  -0.198   0.000  0.00  0.00    +0.000 OA
ATOM     23  O   UNL     1       4.240   1.035   0.000  0.00  0.00    +0.000 OA
ATOM     24  C   UNL     1       5.665   0.192   0.000  0.00  0.00    +0.000 A 
ATOM     25  C   UNL     1       5.669   1.051   0.000  0.00  0.00    +0.000 A 
ATOM     26  C   UNL     1       6.411  -0.235   0.000  0.00  0.00    +0.000 A 
ATOM     27  C   UNL     1       6.378   1.472   0.000  0.00  0.00    +0.000 A 
ATOM     28  C   UNL     1       7.150   0.203   0.000  0.00  0.00    +0.000 A 
ATOM     29  C   UNL     1       4.949   1.455   0.000  0.00  0.00    +0.000 A 
ATOM     30  C   UNL     1       7.134   1.062   0.000  0.00  0.00    +0.000 A 
ATOM     31  C   UNL     1       4.940   2.280   0.000  0.00  0.00    +0.000 A 
ATOM     32  C   UNL     1       5.650   2.701   0.000  0.00  0.00    +0.000 A 
BRANCH  32  34
ATOM     33  O   UNL     1       5.611   6.001   0.000  0.00  0.00    +0.000 OA
ATOM     34  C   UNL     1       5.640   3.526   0.000  0.00  0.00    +0.000 A 
ATOM     35  C   UNL     1       6.350   3.947   0.000  0.00  0.00    +0.000 A 
ATOM     36  C   UNL     1       4.921   3.930   0.000  0.00  0.00    +0.000 A 
ATOM     37  C   UNL     1       6.340   4.772   0.000  0.00  0.00    +0.000 A 
ATOM     38  C   UNL     1       4.911   4.755   0.000  0.00  0.00    +0.000 A 
ATOM     39  C   UNL     1       5.621   5.176   0.000  0.00  0.00    +0.000 A 
ENDBRANCH  32  34
ENDBRANCH  20  24
ENDBRANCH   8  20
BRANCH   6  40
ATOM     40  C   UNL     1       6.380  -2.696   0.000  0.00  0.00    +0.000 C 
BRANCH  40  41
ATOM     41  O   UNL     1       7.094  -2.283   0.000  0.00  0.00    +0.000 OA
BRANCH  41  43
ATOM     42  O   UNL     1       7.809  -3.521   0.000  0.00  0.00    +0.000 OA
ATOM     43  C   UNL     1       7.809  -2.696   0.000  0.00  0.00    +0.000 C 
ATOM     44  C   UNL     1       8.523  -2.283   0.000  0.00  0.00    +0.000 C 
ENDBRANCH  41  43
ENDBRANCH  40  41
ENDBRANCH   6  40
TORSDOF 8
