REMARK  Name = 131836733
REMARK  9 active torsions:
REMARK  status: ('A' for Active; 'I' for Inactive)
REMARK    1  A    between atoms: O_7  and  C_28
REMARK    2  A    between atoms: O_7  and  C_37
REMARK    3  A    between atoms: C_20  and  C_22
REMARK    4  A    between atoms: C_21  and  C_23
REMARK    5  A    between atoms: C_27  and  C_34
REMARK    6  A    between atoms: C_31  and  C_35
REMARK    7  A    between atoms: C_35  and  C_36
REMARK    8  A    between atoms: C_36  and  C_38
REMARK    9  A    between atoms: C_38  and  C_39
REMARK                            x       y       z     vdW  Elec       q    Type
REMARK                         _______ _______ _______ _____ _____    ______ ____
ROOT
ATOM      1  O   UNL     1       8.523   0.078   0.000  0.00  0.00    +0.000 OA
ATOM      2  C   UNL     1       7.809   0.491   0.000  0.00  0.00    +0.000 C 
ENDROOT
BRANCH   2   9
ATOM      3  O   UNL     1       9.238   1.316   0.000  0.00  0.00    +0.000 OA
ATOM      4  O   UNL     1       7.809   3.791   0.000  0.00  0.00    +0.000 OA
ATOM      5  O   UNL     1       6.380   1.316   0.000  0.00  0.00    +0.000 OA
ATOM      6  C   UNL     1       8.523   2.553   0.000  0.00  0.00    +0.000 A 
ATOM      7  C   UNL     1       8.523   1.728   0.000  0.00  0.00    +0.000 A 
ATOM      8  C   UNL     1       7.809   2.966   0.000  0.00  0.00    +0.000 A 
ATOM      9  C   UNL     1       7.809   1.316   0.000  0.00  0.00    +0.000 A 
ATOM     10  C   UNL     1       7.094   2.553   0.000  0.00  0.00    +0.000 A 
ATOM     11  C   UNL     1       7.094   1.728   0.000  0.00  0.00    +0.000 A 
BRANCH   6  19
ATOM     12  O   UNL     1       9.238   3.791   0.000  0.00  0.00    +0.000 OA
ATOM     13  O   UNL     1      11.381   2.553   0.000  0.00  0.00    +0.000 OA
ATOM     14  O   UNL     1       9.952   1.728   0.000  0.00  0.00    +0.000 OA
ATOM     15  O   UNL     1      11.381   4.203   0.000  0.00  0.00    +0.000 OA
ATOM     16  C   UNL     1      10.667   2.966   0.000  0.00  0.00    +0.000 C 
ATOM     17  C   UNL     1       9.952   2.553   0.000  0.00  0.00    +0.000 C 
ATOM     18  C   UNL     1      10.667   3.791   0.000  0.00  0.00    +0.000 C 
ATOM     19  C   UNL     1       9.238   2.966   0.000  0.00  0.00    +0.000 C 
ATOM     20  C   UNL     1       9.952   4.203   0.000  0.00  0.00    +0.000 C 
BRANCH  20  22
ATOM     21  O   UNL     1      10.667   5.441   0.000  0.00  0.00    +0.000 OA
ATOM     22  C   UNL     1       9.952   5.028   0.000  0.00  0.00    +0.000 C 
ENDBRANCH  20  22
ENDBRANCH   6  19
ENDBRANCH   2   9
BRANCH   2  23
ATOM     23  C   UNL     1       7.094   0.078   0.000  0.00  0.00    +0.000 C 
BRANCH  23  24
ATOM     24  C   UNL     1       7.094  -0.747   0.000  0.00  0.00    +0.000 C 
BRANCH  24  26
ATOM     25  C   UNL     1       5.665  -2.397   0.000  0.00  0.00    +0.000 A 
ATOM     26  C   UNL     1       6.380  -1.159   0.000  0.00  0.00    +0.000 A 
ATOM     27  C   UNL     1       6.380  -1.984   0.000  0.00  0.00    +0.000 A 
ATOM     28  C   UNL     1       4.951  -1.984   0.000  0.00  0.00    +0.000 A 
ATOM     29  C   UNL     1       5.665  -0.747   0.000  0.00  0.00    +0.000 A 
ATOM     30  C   UNL     1       4.951  -1.159   0.000  0.00  0.00    +0.000 A 
BRANCH  25  31
ATOM     31  O   UNL     1       5.665  -3.222   0.000  0.00  0.00    +0.000 OA
BRANCH  31  40
ATOM     32  O   UNL     1       4.236  -3.222   0.000  0.00  0.00    +0.000 OA
ATOM     33  O   UNL     1       4.236  -5.697   0.000  0.00  0.00    +0.000 OA
ATOM     34  O   UNL     1       2.808  -4.872   0.000  0.00  0.00    +0.000 OA
ATOM     35  O   UNL     1       5.665  -4.872   0.000  0.00  0.00    +0.000 OA
ATOM     36  C   UNL     1       4.236  -4.872   0.000  0.00  0.00    +0.000 C 
ATOM     37  C   UNL     1       3.522  -4.459   0.000  0.00  0.00    +0.000 C 
ATOM     38  C   UNL     1       4.951  -4.459   0.000  0.00  0.00    +0.000 C 
ATOM     39  C   UNL     1       3.522  -3.634   0.000  0.00  0.00    +0.000 C 
ATOM     40  C   UNL     1       4.951  -3.634   0.000  0.00  0.00    +0.000 C 
BRANCH  39  43
ATOM     41  O   UNL     1       2.093  -3.634   0.000  0.00  0.00    +0.000 OA
ATOM     42  O   UNL     1       2.808  -2.397   0.000  0.00  0.00    +0.000 OA
ATOM     43  C   UNL     1       2.808  -3.222   0.000  0.00  0.00    +0.000 C 
ENDBRANCH  39  43
ENDBRANCH  31  40
ENDBRANCH  25  31
ENDBRANCH  24  26
ENDBRANCH  23  24
ENDBRANCH   2  23
TORSDOF 9
