REMARK  Name = 131838780
REMARK  9 active torsions:
REMARK  status: ('A' for Active; 'I' for Inactive)
REMARK    1  A    between atoms: O_3  and  C_28
REMARK    2  A    between atoms: O_3  and  C_37
REMARK    3  A    between atoms: C_17  and  C_30
REMARK    4  A    between atoms: C_18  and  C_21
REMARK    5  A    between atoms: C_18  and  C_26
REMARK    6  A    between atoms: C_18  and  C_31
REMARK    7  A    between atoms: C_26  and  C_34
REMARK    8  A    between atoms: C_29  and  C_42
REMARK    9  A    between atoms: C_34  and  C_40
REMARK                            x       y       z     vdW  Elec       q    Type
REMARK                         _______ _______ _______ _____ _____    ______ ____
ROOT
ATOM      1  O   UNL     1       4.986   0.426   0.000  0.00  0.00    +0.000 OA
ATOM      2  O   UNL     1       4.237  -1.685   0.000  0.00  0.00    +0.000 OA
ATOM      3  O   UNL     1       3.530   2.912   0.000  0.00  0.00    +0.000 OA
ATOM      4  O   UNL     1       2.092   0.443   0.000  0.00  0.00    +0.000 OA
ATOM      5  C   UNL     1       4.989  -0.433   0.000  0.00  0.00    +0.000 C 
ATOM      6  C   UNL     1       4.244  -0.860   0.000  0.00  0.00    +0.000 C 
ATOM      7  C   UNL     1       3.504  -0.422   0.000  0.00  0.00    +0.000 C 
ATOM      8  C   UNL     1       4.240   1.672   0.000  0.00  0.00    +0.000 A 
ATOM      9  C   UNL     1       4.237   0.847   0.000  0.00  0.00    +0.000 A 
ATOM     10  C   UNL     1       3.521   0.437   0.000  0.00  0.00    +0.000 A 
ATOM     11  C   UNL     1       3.527   2.087   0.000  0.00  0.00    +0.000 A 
ATOM     12  C   UNL     1       2.808   0.853   0.000  0.00  0.00    +0.000 A 
ATOM     13  C   UNL     1       2.811   1.677   0.000  0.00  0.00    +0.000 A 
ENDROOT
BRANCH   5  15
ATOM     14  O   UNL     1       7.847  -2.083   0.000  0.00  0.00    +0.000 OA
ATOM     15  C   UNL     1       5.704  -0.846   0.000  0.00  0.00    +0.000 A 
ATOM     16  C   UNL     1       5.704  -1.671   0.000  0.00  0.00    +0.000 A 
ATOM     17  C   UNL     1       6.418  -2.083   0.000  0.00  0.00    +0.000 A 
ATOM     18  C   UNL     1       6.418  -0.433   0.000  0.00  0.00    +0.000 A 
ATOM     19  C   UNL     1       7.133  -1.671   0.000  0.00  0.00    +0.000 A 
ATOM     20  C   UNL     1       7.133  -0.846   0.000  0.00  0.00    +0.000 A 
BRANCH  17  21
ATOM     21  O   UNL     1       6.418  -2.908   0.000  0.00  0.00    +0.000 OA
BRANCH  21  29
ATOM     22  O   UNL     1       4.989  -2.908   0.000  0.00  0.00    +0.000 OA
ATOM     23  O   UNL     1       4.989  -5.383   0.000  0.00  0.00    +0.000 OA
ATOM     24  O   UNL     1       6.418  -4.558   0.000  0.00  0.00    +0.000 OA
ATOM     25  O   UNL     1       3.561  -4.558   0.000  0.00  0.00    +0.000 OA
ATOM     26  C   UNL     1       4.989  -4.558   0.000  0.00  0.00    +0.000 C 
ATOM     27  C   UNL     1       5.704  -4.146   0.000  0.00  0.00    +0.000 C 
ATOM     28  C   UNL     1       4.275  -4.146   0.000  0.00  0.00    +0.000 C 
ATOM     29  C   UNL     1       5.704  -3.321   0.000  0.00  0.00    +0.000 C 
ATOM     30  C   UNL     1       4.275  -3.321   0.000  0.00  0.00    +0.000 C 
BRANCH  30  33
ATOM     31  O   UNL     1       2.846  -3.321   0.000  0.00  0.00    +0.000 OA
ATOM     32  O   UNL     1       3.561  -2.083   0.000  0.00  0.00    +0.000 OA
ATOM     33  C   UNL     1       3.561  -2.908   0.000  0.00  0.00    +0.000 C 
ENDBRANCH  30  33
ENDBRANCH  21  29
ENDBRANCH  17  21
ENDBRANCH   5  15
BRANCH   8  34
ATOM     34  C   UNL     1       4.956   2.082   0.000  0.00  0.00    +0.000 C 
BRANCH  34  37
ATOM     35  O   UNL     1       6.388   2.901   0.000  0.00  0.00    +0.000 OA
ATOM     36  O   UNL     1       4.969   5.382   0.000  0.00  0.00    +0.000 OA
ATOM     37  C   UNL     1       4.959   2.907   0.000  0.00  0.00    +0.000 A 
ATOM     38  C   UNL     1       5.675   3.316   0.000  0.00  0.00    +0.000 A 
ATOM     39  C   UNL     1       4.247   3.322   0.000  0.00  0.00    +0.000 A 
ATOM     40  C   UNL     1       5.679   4.141   0.000  0.00  0.00    +0.000 A 
ATOM     41  C   UNL     1       4.250   4.147   0.000  0.00  0.00    +0.000 A 
ATOM     42  C   UNL     1       4.966   4.557   0.000  0.00  0.00    +0.000 A 
ENDBRANCH  34  37
BRANCH  34  44
ATOM     43  O   UNL     1       5.666   0.842   0.000  0.00  0.00    +0.000 OA
ATOM     44  C   UNL     1       5.669   1.667   0.000  0.00  0.00    +0.000 C 
BRANCH  44  45
ATOM     45  C   UNL     1       6.385   2.076   0.000  0.00  0.00    +0.000 C 
BRANCH  45  47
ATOM     46  O   UNL     1       7.804  -0.404   0.000  0.00  0.00    +0.000 OA
ATOM     47  C   UNL     1       7.098   1.661   0.000  0.00  0.00    +0.000 A 
ATOM     48  C   UNL     1       7.095   0.836   0.000  0.00  0.00    +0.000 A 
ATOM     49  C   UNL     1       7.814   2.071   0.000  0.00  0.00    +0.000 A 
ATOM     50  C   UNL     1       7.808   0.421   0.000  0.00  0.00    +0.000 A 
ATOM     51  C   UNL     1       8.527   1.655   0.000  0.00  0.00    +0.000 A 
ATOM     52  C   UNL     1       8.524   0.830   0.000  0.00  0.00    +0.000 A 
ENDBRANCH  45  47
ENDBRANCH  44  45
ENDBRANCH  34  44
ENDBRANCH   8  34
TORSDOF 9
