REMARK  Name = 131836780
REMARK  7 active torsions:
REMARK  status: ('A' for Active; 'I' for Inactive)
REMARK    1  A    between atoms: O_2  and  C_20
REMARK    2  A    between atoms: O_2  and  C_22
REMARK    3  A    between atoms: O_7  and  C_27
REMARK    4  A    between atoms: O_7  and  C_33
REMARK    5  A    between atoms: C_21  and  C_29
REMARK    6  A    between atoms: C_25  and  C_34
REMARK    7  A    between atoms: C_28  and  C_35
REMARK                            x       y       z     vdW  Elec       q    Type
REMARK                         _______ _______ _______ _____ _____    ______ ____
ROOT
ATOM      1  O   UNL     1       7.136   1.755   0.000  0.00  0.00    +0.000 OA
ATOM      2  O   UNL     1       7.108  -0.720   0.000  0.00  0.00    +0.000 OA
ATOM      3  O   UNL     1       4.225   1.808   0.000  0.00  0.00    +0.000 OA
ATOM      4  C   UNL     1       7.837   0.509   0.000  0.00  0.00    +0.000 C 
ATOM      5  C   UNL     1       7.846   1.334   0.000  0.00  0.00    +0.000 C 
ATOM      6  C   UNL     1       7.117   0.105   0.000  0.00  0.00    +0.000 C 
ATOM      7  C   UNL     1       6.408   0.526   0.000  0.00  0.00    +0.000 A 
ATOM      8  C   UNL     1       6.417   1.351   0.000  0.00  0.00    +0.000 A 
ATOM      9  C   UNL     1       5.665   0.093   0.000  0.00  0.00    +0.000 A 
ATOM     10  C   UNL     1       5.685   1.800   0.000  0.00  0.00    +0.000 A 
ATOM     11  C   UNL     1       4.923   0.526   0.000  0.00  0.00    +0.000 A 
ATOM     12  C   UNL     1       4.933   1.385   0.000  0.00  0.00    +0.000 A 
ENDROOT
BRANCH   5  15
ATOM     13  O   UNL     1      10.704   1.301   0.000  0.00  0.00    +0.000 OA
ATOM     14  O   UNL     1      10.723   2.951   0.000  0.00  0.00    +0.000 OA
ATOM     15  C   UNL     1       8.565   1.738   0.000  0.00  0.00    +0.000 A 
ATOM     16  C   UNL     1       9.275   1.318   0.000  0.00  0.00    +0.000 A 
ATOM     17  C   UNL     1       8.575   2.563   0.000  0.00  0.00    +0.000 A 
ATOM     18  C   UNL     1       9.994   1.722   0.000  0.00  0.00    +0.000 A 
ATOM     19  C   UNL     1       9.294   2.967   0.000  0.00  0.00    +0.000 A 
ATOM     20  C   UNL     1      10.004   2.547   0.000  0.00  0.00    +0.000 A 
ENDBRANCH   5  15
BRANCH   4  21
ATOM     21  O   UNL     1       8.546   0.088   0.000  0.00  0.00    +0.000 OA
BRANCH  21  27
ATOM     22  O   UNL     1       7.864  -1.214   0.000  0.00  0.00    +0.000 OA
ATOM     23  O   UNL     1       9.986  -0.983   0.000  0.00  0.00    +0.000 OA
ATOM     24  O   UNL     1       9.412  -2.684   0.000  0.00  0.00    +0.000 OA
ATOM     25  C   UNL     1       9.198  -1.229   0.000  0.00  0.00    +0.000 C 
ATOM     26  C   UNL     1       8.934  -2.011   0.000  0.00  0.00    +0.000 C 
ATOM     27  C   UNL     1       8.537  -0.736   0.000  0.00  0.00    +0.000 C 
ATOM     28  C   UNL     1       8.110  -2.001   0.000  0.00  0.00    +0.000 C 
BRANCH  28  30
ATOM     29  O   UNL     1       6.798  -2.567   0.000  0.00  0.00    +0.000 OA
ATOM     30  C   UNL     1       7.617  -2.663   0.000  0.00  0.00    +0.000 C 
ENDBRANCH  28  30
ENDBRANCH  21  27
ENDBRANCH   4  21
BRANCH   9  31
ATOM     31  O   UNL     1       5.665  -0.732   0.000  0.00  0.00    +0.000 OA
BRANCH  31  39
ATOM     32  O   UNL     1       4.236  -0.732   0.000  0.00  0.00    +0.000 OA
ATOM     33  O   UNL     1       4.236  -3.207   0.000  0.00  0.00    +0.000 OA
ATOM     34  O   UNL     1       5.665  -2.382   0.000  0.00  0.00    +0.000 OA
ATOM     35  O   UNL     1       2.807  -2.382   0.000  0.00  0.00    +0.000 OA
ATOM     36  C   UNL     1       4.236  -2.382   0.000  0.00  0.00    +0.000 C 
ATOM     37  C   UNL     1       4.951  -1.969   0.000  0.00  0.00    +0.000 C 
ATOM     38  C   UNL     1       3.522  -1.969   0.000  0.00  0.00    +0.000 C 
ATOM     39  C   UNL     1       4.951  -1.144   0.000  0.00  0.00    +0.000 C 
ATOM     40  C   UNL     1       3.522  -1.144   0.000  0.00  0.00    +0.000 C 
BRANCH  40  43
ATOM     41  O   UNL     1       2.093  -1.144   0.000  0.00  0.00    +0.000 OA
ATOM     42  O   UNL     1       2.807   0.093   0.000  0.00  0.00    +0.000 OA
ATOM     43  C   UNL     1       2.807  -0.732   0.000  0.00  0.00    +0.000 C 
ENDBRANCH  40  43
ENDBRANCH  31  39
ENDBRANCH   9  31
TORSDOF 7
