REMARK  Name = 131836794
REMARK  7 active torsions:
REMARK  status: ('A' for Active; 'I' for Inactive)
REMARK    1  A    between atoms: O_2  and  C_19
REMARK    2  A    between atoms: O_2  and  C_21
REMARK    3  A    between atoms: O_7  and  C_26
REMARK    4  A    between atoms: O_7  and  C_34
REMARK    5  A    between atoms: C_20  and  C_27
REMARK    6  A    between atoms: C_22  and  C_30
REMARK    7  A    between atoms: C_28  and  C_35
REMARK                            x       y       z     vdW  Elec       q    Type
REMARK                         _______ _______ _______ _____ _____    ______ ____
ROOT
ATOM      1  O   UNL     1       5.006  -0.393   0.000  0.00  0.00    +0.000 OA
ATOM      2  O   UNL     1       5.006   2.082   0.000  0.00  0.00    +0.000 OA
ATOM      3  O   UNL     1       3.564   2.110   0.000  0.00  0.00    +0.000 OA
ATOM      4  O   UNL     1       2.094  -0.413   0.000  0.00  0.00    +0.000 OA
ATOM      5  C   UNL     1       5.721   0.844   0.000  0.00  0.00    +0.000 C 
ATOM      6  C   UNL     1       5.721   0.019   0.000  0.00  0.00    +0.000 C 
ATOM      7  C   UNL     1       5.006   1.257   0.000  0.00  0.00    +0.000 C 
ATOM      8  C   UNL     1       4.292   0.844   0.000  0.00  0.00    +0.000 A 
ATOM      9  C   UNL     1       4.292   0.019   0.000  0.00  0.00    +0.000 A 
ATOM     10  C   UNL     1       3.554   1.286   0.000  0.00  0.00    +0.000 A 
ATOM     11  C   UNL     1       3.554  -0.422   0.000  0.00  0.00    +0.000 A 
ATOM     12  C   UNL     1       2.807   0.862   0.000  0.00  0.00    +0.000 A 
ATOM     13  C   UNL     1       2.807   0.002   0.000  0.00  0.00    +0.000 A 
ENDROOT
BRANCH   6  14
ATOM     14  C   UNL     1       6.435  -0.393   0.000  0.00  0.00    +0.000 A 
ATOM     15  C   UNL     1       6.435  -1.218   0.000  0.00  0.00    +0.000 A 
ATOM     16  C   UNL     1       7.150  -1.631   0.000  0.00  0.00    +0.000 A 
ATOM     17  C   UNL     1       7.150   0.019   0.000  0.00  0.00    +0.000 A 
ATOM     18  C   UNL     1       7.864  -1.218   0.000  0.00  0.00    +0.000 A 
ATOM     19  C   UNL     1       7.864  -0.393   0.000  0.00  0.00    +0.000 A 
BRANCH  16  20
ATOM     20  O   UNL     1       7.150  -2.456   0.000  0.00  0.00    +0.000 OA
BRANCH  20  28
ATOM     21  O   UNL     1       5.721  -2.456   0.000  0.00  0.00    +0.000 OA
ATOM     22  O   UNL     1       5.721  -4.931   0.000  0.00  0.00    +0.000 OA
ATOM     23  O   UNL     1       7.150  -4.106   0.000  0.00  0.00    +0.000 OA
ATOM     24  O   UNL     1       4.292  -4.106   0.000  0.00  0.00    +0.000 OA
ATOM     25  C   UNL     1       5.721  -4.106   0.000  0.00  0.00    +0.000 C 
ATOM     26  C   UNL     1       6.435  -3.693   0.000  0.00  0.00    +0.000 C 
ATOM     27  C   UNL     1       5.006  -3.693   0.000  0.00  0.00    +0.000 C 
ATOM     28  C   UNL     1       6.435  -2.868   0.000  0.00  0.00    +0.000 C 
ATOM     29  C   UNL     1       5.006  -2.868   0.000  0.00  0.00    +0.000 C 
BRANCH  29  32
ATOM     30  O   UNL     1       3.577  -2.868   0.000  0.00  0.00    +0.000 OA
ATOM     31  O   UNL     1       4.292  -1.631   0.000  0.00  0.00    +0.000 OA
ATOM     32  C   UNL     1       4.292  -2.456   0.000  0.00  0.00    +0.000 C 
ENDBRANCH  29  32
ENDBRANCH  20  28
ENDBRANCH  16  20
ENDBRANCH   6  14
BRANCH   5  33
ATOM     33  O   UNL     1       6.435   1.257   0.000  0.00  0.00    +0.000 OA
BRANCH  33  39
ATOM     34  O   UNL     1       5.768   2.567   0.000  0.00  0.00    +0.000 OA
ATOM     35  O   UNL     1       7.887   2.312   0.000  0.00  0.00    +0.000 OA
ATOM     36  O   UNL     1       7.333   4.019   0.000  0.00  0.00    +0.000 OA
ATOM     37  C   UNL     1       7.103   2.567   0.000  0.00  0.00    +0.000 C 
ATOM     38  C   UNL     1       6.848   3.351   0.000  0.00  0.00    +0.000 C 
ATOM     39  C   UNL     1       6.435   2.082   0.000  0.00  0.00    +0.000 C 
ATOM     40  C   UNL     1       6.023   3.351   0.000  0.00  0.00    +0.000 C 
BRANCH  40  42
ATOM     41  O   UNL     1       5.873   4.772   0.000  0.00  0.00    +0.000 OA
ATOM     42  C   UNL     1       5.538   4.019   0.000  0.00  0.00    +0.000 C 
ENDBRANCH  40  42
ENDBRANCH  33  39
ENDBRANCH   5  33
TORSDOF 7
