REMARK  Name = 10429470
REMARK  5 active torsions:
REMARK  status: ('A' for Active; 'I' for Inactive)
REMARK    1  A    between atoms: O_2  and  C_11
REMARK    2  A    between atoms: O_3  and  C_15
REMARK    3  A    between atoms: O_4  and  C_16
REMARK    4  A    between atoms: O_5  and  C_17
REMARK    5  A    between atoms: C_12  and  C_18
REMARK                            x       y       z     vdW  Elec       q    Type
REMARK                         _______ _______ _______ _____ _____    ______ ____
ROOT
ATOM      1  O   UNL     1       5.245  -0.505   0.000  0.00  0.00    +0.000 OA
ATOM      2  O   UNL     1       3.793   1.998   0.000  0.00  0.00    +0.000 OA
ATOM      3  O   UNL     1       5.236   2.027   0.000  0.00  0.00    +0.000 OA
ATOM      4  C   UNL     1       4.508   0.761   0.000  0.00  0.00    +0.000 A 
ATOM      5  C   UNL     1       4.508  -0.064   0.000  0.00  0.00    +0.000 A 
ATOM      6  C   UNL     1       3.793  -0.477   0.000  0.00  0.00    +0.000 A 
ATOM      7  C   UNL     1       5.993  -0.081   0.000  0.00  0.00    +0.000 A 
ATOM      8  C   UNL     1       3.793   1.173   0.000  0.00  0.00    +0.000 A 
ATOM      9  C   UNL     1       5.245   1.202   0.000  0.00  0.00    +0.000 A 
ATOM     10  C   UNL     1       5.993   0.778   0.000  0.00  0.00    +0.000 A 
ATOM     11  C   UNL     1       3.079  -0.064   0.000  0.00  0.00    +0.000 A 
ATOM     12  C   UNL     1       3.079   0.761   0.000  0.00  0.00    +0.000 A 
ENDROOT
BRANCH   7  14
ATOM     13  O   UNL     1       8.844  -1.742   0.000  0.00  0.00    +0.000 OA
ATOM     14  C   UNL     1       6.706  -0.497   0.000  0.00  0.00    +0.000 A 
ATOM     15  C   UNL     1       7.422  -0.087   0.000  0.00  0.00    +0.000 A 
ATOM     16  C   UNL     1       6.703  -1.322   0.000  0.00  0.00    +0.000 A 
ATOM     17  C   UNL     1       8.135  -0.502   0.000  0.00  0.00    +0.000 A 
ATOM     18  C   UNL     1       7.415  -1.737   0.000  0.00  0.00    +0.000 A 
ATOM     19  C   UNL     1       8.132  -1.327   0.000  0.00  0.00    +0.000 A 
ENDBRANCH   7  14
BRANCH   6  20
ATOM     20  O   UNL     1       3.793  -1.302   0.000  0.00  0.00    +0.000 OA
ATOM     21  C   UNL     1       3.079  -1.714   0.000  0.00  0.00    +0.000 C 
ENDBRANCH   6  20
BRANCH  10  22
ATOM     22  O   UNL     1       6.706   1.193   0.000  0.00  0.00    +0.000 OA
ATOM     23  C   UNL     1       6.703   2.018   0.000  0.00  0.00    +0.000 C 
ENDBRANCH  10  22
BRANCH  11  24
ATOM     24  O   UNL     1       2.364  -0.477   0.000  0.00  0.00    +0.000 OA
ATOM     25  C   UNL     1       1.650  -0.064   0.000  0.00  0.00    +0.000 C 
ENDBRANCH  11  24
BRANCH  12  26
ATOM     26  O   UNL     1       2.364   1.173   0.000  0.00  0.00    +0.000 OA
ATOM     27  C   UNL     1       1.650   0.761   0.000  0.00  0.00    +0.000 C 
ENDBRANCH  12  26
TORSDOF 5
