REMARK  Name = 131836732
REMARK  9 active torsions:
REMARK  status: ('A' for Active; 'I' for Inactive)
REMARK    1  A    between atoms: O_2  and  C_24
REMARK    2  A    between atoms: O_2  and  C_27
REMARK    3  A    between atoms: C_17  and  C_22
REMARK    4  A    between atoms: C_21  and  C_28
REMARK    5  A    between atoms: C_29  and  C_34
REMARK    6  A    between atoms: C_31  and  C_35
REMARK    7  A    between atoms: C_35  and  C_36
REMARK    8  A    between atoms: C_36  and  C_37
REMARK    9  A    between atoms: C_37  and  C_38
REMARK                            x       y       z     vdW  Elec       q    Type
REMARK                         _______ _______ _______ _____ _____    ______ ____
ROOT
ATOM      1  O   UNL     1       7.366   1.444   0.000  0.00  0.00    +0.000 OA
ATOM      2  O   UNL     1       4.508   1.444   0.000  0.00  0.00    +0.000 OA
ATOM      3  C   UNL     1       6.651   0.206   0.000  0.00  0.00    +0.000 A 
ATOM      4  C   UNL     1       5.937  -0.206   0.000  0.00  0.00    +0.000 A 
ATOM      5  C   UNL     1       6.651   1.031   0.000  0.00  0.00    +0.000 A 
ATOM      6  C   UNL     1       5.222   0.206   0.000  0.00  0.00    +0.000 A 
ATOM      7  C   UNL     1       5.937   1.444   0.000  0.00  0.00    +0.000 A 
ATOM      8  C   UNL     1       5.222   1.031   0.000  0.00  0.00    +0.000 A 
ENDROOT
BRANCH   3  13
ATOM      9  O   UNL     1       8.080   0.206   0.000  0.00  0.00    +0.000 OA
ATOM     10  O   UNL     1       6.651  -1.444   0.000  0.00  0.00    +0.000 OA
ATOM     11  O   UNL     1       8.080  -2.269   0.000  0.00  0.00    +0.000 OA
ATOM     12  O   UNL     1       9.509  -1.444   0.000  0.00  0.00    +0.000 OA
ATOM     13  C   UNL     1       7.366  -0.206   0.000  0.00  0.00    +0.000 C 
ATOM     14  C   UNL     1       7.366  -1.031   0.000  0.00  0.00    +0.000 C 
ATOM     15  C   UNL     1       8.080  -1.444   0.000  0.00  0.00    +0.000 C 
ATOM     16  C   UNL     1       8.795  -1.031   0.000  0.00  0.00    +0.000 C 
ATOM     17  C   UNL     1       8.795  -0.206   0.000  0.00  0.00    +0.000 C 
BRANCH  17  19
ATOM     18  O   UNL     1      10.224  -0.206   0.000  0.00  0.00    +0.000 OA
ATOM     19  C   UNL     1       9.509   0.206   0.000  0.00  0.00    +0.000 C 
ENDBRANCH  17  19
ENDBRANCH   3  13
BRANCH   6  21
ATOM     20  O   UNL     1       3.793  -0.619   0.000  0.00  0.00    +0.000 OA
ATOM     21  C   UNL     1       4.508  -0.206   0.000  0.00  0.00    +0.000 C 
BRANCH  21  22
ATOM     22  C   UNL     1       3.793   0.206   0.000  0.00  0.00    +0.000 C 
BRANCH  22  23
ATOM     23  C   UNL     1       3.793   1.031   0.000  0.00  0.00    +0.000 C 
BRANCH  23  25
ATOM     24  O   UNL     1       2.364   3.506   0.000  0.00  0.00    +0.000 OA
ATOM     25  C   UNL     1       3.079   1.444   0.000  0.00  0.00    +0.000 A 
ATOM     26  C   UNL     1       3.079   2.269   0.000  0.00  0.00    +0.000 A 
ATOM     27  C   UNL     1       2.364   1.031   0.000  0.00  0.00    +0.000 A 
ATOM     28  C   UNL     1       2.364   2.681   0.000  0.00  0.00    +0.000 A 
ATOM     29  C   UNL     1       1.650   1.444   0.000  0.00  0.00    +0.000 A 
ATOM     30  C   UNL     1       1.650   2.269   0.000  0.00  0.00    +0.000 A 
ENDBRANCH  23  25
ENDBRANCH  22  23
ENDBRANCH  21  22
ENDBRANCH   6  21
BRANCH   4  31
ATOM     31  O   UNL     1       5.937  -1.031   0.000  0.00  0.00    +0.000 OA
BRANCH  31  37
ATOM     32  O   UNL     1       4.508  -1.031   0.000  0.00  0.00    +0.000 OA
ATOM     33  O   UNL     1       5.937  -2.681   0.000  0.00  0.00    +0.000 OA
ATOM     34  O   UNL     1       4.508  -3.506   0.000  0.00  0.00    +0.000 OA
ATOM     35  O   UNL     1       3.079  -2.681   0.000  0.00  0.00    +0.000 OA
ATOM     36  C   UNL     1       5.222  -2.269   0.000  0.00  0.00    +0.000 C 
ATOM     37  C   UNL     1       5.222  -1.444   0.000  0.00  0.00    +0.000 C 
ATOM     38  C   UNL     1       4.508  -2.681   0.000  0.00  0.00    +0.000 C 
ATOM     39  C   UNL     1       3.793  -2.269   0.000  0.00  0.00    +0.000 C 
ATOM     40  C   UNL     1       3.793  -1.444   0.000  0.00  0.00    +0.000 C 
BRANCH  40  43
ATOM     41  O   UNL     1       2.364  -1.444   0.000  0.00  0.00    +0.000 OA
ATOM     42  O   UNL     1       3.079  -0.206   0.000  0.00  0.00    +0.000 OA
ATOM     43  C   UNL     1       3.079  -1.031   0.000  0.00  0.00    +0.000 C 
ENDBRANCH  40  43
ENDBRANCH  31  37
ENDBRANCH   4  31
TORSDOF 9
