REMARK  Name = 131832480
REMARK  4 active torsions:
REMARK  status: ('A' for Active; 'I' for Inactive)
REMARK    1  A    between atoms: O_3  and  C_19
REMARK    2  A    between atoms: O_3  and  C_28
REMARK    3  A    between atoms: C_20  and  C_29
REMARK    4  A    between atoms: C_27  and  C_31
REMARK                            x       y       z     vdW  Elec       q    Type
REMARK                         _______ _______ _______ _____ _____    ______ ____
ROOT
ATOM      1  O   UNL     1       5.937   1.002   0.000  0.00  0.00    +0.000 OA
ATOM      2  O   UNL     1       3.793  -0.236   0.000  0.00  0.00    +0.000 OA
ATOM      3  O   UNL     1       3.047   0.999   0.000  0.00  0.00    +0.000 OA
ATOM      4  O   UNL     1       4.498   3.534   0.000  0.00  0.00    +0.000 OA
ATOM      5  C   UNL     1       5.222  -0.236   0.000  0.00  0.00    +0.000 A 
ATOM      6  C   UNL     1       5.937   0.177   0.000  0.00  0.00    +0.000 A 
ATOM      7  C   UNL     1       4.508   0.177   0.000  0.00  0.00    +0.000 A 
ATOM      8  C   UNL     1       4.508   1.002   0.000  0.00  0.00    +0.000 A 
ATOM      9  C   UNL     1       5.222   1.414   0.000  0.00  0.00    +0.000 A 
ATOM     10  C   UNL     1       3.757   1.420   0.000  0.00  0.00    +0.000 A 
ATOM     11  C   UNL     1       5.236   2.273   0.000  0.00  0.00    +0.000 A 
ATOM     12  C   UNL     1       3.750   2.279   0.000  0.00  0.00    +0.000 A 
ATOM     13  C   UNL     1       4.495   2.709   0.000  0.00  0.00    +0.000 A 
ENDROOT
BRANCH   6  24
ATOM     14  O   UNL     1       8.855  -1.482   0.000  0.00  0.00    +0.000 OA
ATOM     15  O   UNL     1      10.278   0.174   0.000  0.00  0.00    +0.000 OA
ATOM     16  C   UNL     1       9.568  -1.067   0.000  0.00  0.00    +0.000 C 
ATOM     17  C   UNL     1       9.565  -0.242   0.000  0.00  0.00    +0.000 C 
ATOM     18  C   UNL     1       8.849   0.168   0.000  0.00  0.00    +0.000 C 
ATOM     19  C   UNL     1       8.136  -0.247   0.000  0.00  0.00    +0.000 A 
ATOM     20  C   UNL     1       8.139  -1.072   0.000  0.00  0.00    +0.000 A 
ATOM     21  C   UNL     1      10.393  -1.063   0.000  0.00  0.00    +0.000 C 
ATOM     22  C   UNL     1       9.983  -1.780   0.000  0.00  0.00    +0.000 C 
ATOM     23  C   UNL     1       7.397   0.191   0.000  0.00  0.00    +0.000 A 
ATOM     24  C   UNL     1       6.651  -0.236   0.000  0.00  0.00    +0.000 A 
ATOM     25  C   UNL     1       7.404  -1.516   0.000  0.00  0.00    +0.000 A 
ATOM     26  C   UNL     1       6.654  -1.095   0.000  0.00  0.00    +0.000 A 
ENDBRANCH   6  24
BRANCH   5  27
ATOM     27  O   UNL     1       5.222  -1.061   0.000  0.00  0.00    +0.000 OA
BRANCH  27  35
ATOM     28  O   UNL     1       3.793  -1.061   0.000  0.00  0.00    +0.000 OA
ATOM     29  O   UNL     1       3.793  -3.536   0.000  0.00  0.00    +0.000 OA
ATOM     30  O   UNL     1       5.222  -2.711   0.000  0.00  0.00    +0.000 OA
ATOM     31  O   UNL     1       2.364  -2.711   0.000  0.00  0.00    +0.000 OA
ATOM     32  C   UNL     1       3.793  -2.711   0.000  0.00  0.00    +0.000 C 
ATOM     33  C   UNL     1       4.508  -2.298   0.000  0.00  0.00    +0.000 C 
ATOM     34  C   UNL     1       3.079  -2.298   0.000  0.00  0.00    +0.000 C 
ATOM     35  C   UNL     1       4.508  -1.473   0.000  0.00  0.00    +0.000 C 
ATOM     36  C   UNL     1       3.079  -1.473   0.000  0.00  0.00    +0.000 C 
BRANCH  36  39
ATOM     37  O   UNL     1       1.650  -1.473   0.000  0.00  0.00    +0.000 OA
ATOM     38  O   UNL     1       2.364  -0.236   0.000  0.00  0.00    +0.000 OA
ATOM     39  C   UNL     1       2.364  -1.061   0.000  0.00  0.00    +0.000 C 
ENDBRANCH  36  39
ENDBRANCH  27  35
ENDBRANCH   5  27
TORSDOF 4
