REMARK  Name = 131751170
REMARK  14 active torsions:
REMARK  status: ('A' for Active; 'I' for Inactive)
REMARK    1  A    between atoms: O_3  and  C_26
REMARK    2  A    between atoms: O_3  and  C_31
REMARK    3  A    between atoms: O_4  and  C_24
REMARK    4  A    between atoms: O_4  and  C_35
REMARK    5  A    between atoms: O_9  and  C_32
REMARK    6  A    between atoms: O_9  and  C_34
REMARK    7  A    between atoms: O_16  and  C_47
REMARK    8  A    between atoms: O_18  and  C_50
REMARK    9  A    between atoms: O_20  and  C_55
REMARK   10  A    between atoms: C_22  and  C_31
REMARK   11  A    between atoms: C_29  and  C_33
REMARK   12  A    between atoms: C_35  and  C_38
REMARK   13  A    between atoms: C_36  and  C_40
REMARK   14  A    between atoms: C_43  and  C_49
REMARK                            x       y       z     vdW  Elec       q    Type
REMARK                         _______ _______ _______ _____ _____    ______ ____
ROOT
ATOM      1  O   UNL     1       5.993   1.031   0.000  0.00  0.00    +0.000 OA
ATOM      2  O   UNL     1       6.707  -1.031   0.000  0.00  0.00    +0.000 OA
ATOM      3  O   UNL     1       8.136  -0.206   0.000  0.00  0.00    +0.000 OA
ATOM      4  O   UNL     1       8.136   1.444   0.000  0.00  0.00    +0.000 OA
ATOM      5  C   UNL     1       5.993   0.206   0.000  0.00  0.00    +0.000 C 
ATOM      6  C   UNL     1       6.707  -0.206   0.000  0.00  0.00    +0.000 C 
ATOM      7  C   UNL     1       7.422   0.206   0.000  0.00  0.00    +0.000 C 
ATOM      8  C   UNL     1       7.422   1.031   0.000  0.00  0.00    +0.000 C 
ATOM      9  C   UNL     1       6.707   1.444   0.000  0.00  0.00    +0.000 C 
ENDROOT
BRANCH   9  10
ATOM     10  O   UNL     1       6.707   2.269   0.000  0.00  0.00    +0.000 OA
BRANCH  10  15
ATOM     11  O   UNL     1       5.278   3.919   0.000  0.00  0.00    +0.000 OA
ATOM     12  O   UNL     1       5.278   1.444   0.000  0.00  0.00    +0.000 OA
ATOM     13  O   UNL     1       3.836   1.415   0.000  0.00  0.00    +0.000 OA
ATOM     14  O   UNL     1       2.366   3.939   0.000  0.00  0.00    +0.000 OA
ATOM     15  C   UNL     1       5.993   2.681   0.000  0.00  0.00    +0.000 A 
ATOM     16  C   UNL     1       5.993   3.506   0.000  0.00  0.00    +0.000 A 
ATOM     17  C   UNL     1       5.278   2.269   0.000  0.00  0.00    +0.000 A 
ATOM     18  C   UNL     1       4.564   2.681   0.000  0.00  0.00    +0.000 A 
ATOM     19  C   UNL     1       4.564   3.506   0.000  0.00  0.00    +0.000 A 
ATOM     20  C   UNL     1       3.826   2.240   0.000  0.00  0.00    +0.000 A 
ATOM     21  C   UNL     1       3.826   3.947   0.000  0.00  0.00    +0.000 A 
ATOM     22  C   UNL     1       3.079   2.664   0.000  0.00  0.00    +0.000 A 
ATOM     23  C   UNL     1       3.079   3.523   0.000  0.00  0.00    +0.000 A 
BRANCH  16  25
ATOM     24  O   UNL     1       8.851   5.156   0.000  0.00  0.00    +0.000 OA
ATOM     25  C   UNL     1       6.707   3.919   0.000  0.00  0.00    +0.000 A 
ATOM     26  C   UNL     1       6.707   4.744   0.000  0.00  0.00    +0.000 A 
ATOM     27  C   UNL     1       7.422   3.506   0.000  0.00  0.00    +0.000 A 
ATOM     28  C   UNL     1       7.422   5.156   0.000  0.00  0.00    +0.000 A 
ATOM     29  C   UNL     1       8.136   3.919   0.000  0.00  0.00    +0.000 A 
ATOM     30  C   UNL     1       8.136   4.744   0.000  0.00  0.00    +0.000 A 
BRANCH  28  31
ATOM     31  O   UNL     1       7.422   5.981   0.000  0.00  0.00    +0.000 OA
ATOM     32  C   UNL     1       6.707   6.394   0.000  0.00  0.00    +0.000 C 
ENDBRANCH  28  31
ENDBRANCH  16  25
BRANCH  22  33
ATOM     33  O   UNL     1       2.366   2.249   0.000  0.00  0.00    +0.000 OA
ATOM     34  C   UNL     1       1.650   2.659   0.000  0.00  0.00    +0.000 C 
ENDBRANCH  22  33
ENDBRANCH  10  15
ENDBRANCH   9  10
BRANCH   5  35
ATOM     35  C   UNL     1       5.278  -0.206   0.000  0.00  0.00    +0.000 C 
BRANCH  35  36
ATOM     36  O   UNL     1       5.278  -1.031   0.000  0.00  0.00    +0.000 OA
BRANCH  36  42
ATOM     37  O   UNL     1       3.849  -1.031   0.000  0.00  0.00    +0.000 OA
ATOM     38  O   UNL     1       3.849  -3.506   0.000  0.00  0.00    +0.000 OA
ATOM     39  O   UNL     1       2.421  -2.681   0.000  0.00  0.00    +0.000 OA
ATOM     40  C   UNL     1       4.564  -2.269   0.000  0.00  0.00    +0.000 C 
ATOM     41  C   UNL     1       3.849  -2.681   0.000  0.00  0.00    +0.000 C 
ATOM     42  C   UNL     1       4.564  -1.444   0.000  0.00  0.00    +0.000 C 
ATOM     43  C   UNL     1       3.135  -2.269   0.000  0.00  0.00    +0.000 C 
ATOM     44  C   UNL     1       3.135  -1.444   0.000  0.00  0.00    +0.000 C 
BRANCH  44  46
ATOM     45  O   UNL     1       2.421  -0.206   0.000  0.00  0.00    +0.000 OA
ATOM     46  C   UNL     1       2.421  -1.031   0.000  0.00  0.00    +0.000 C 
ENDBRANCH  44  46
BRANCH  40  47
ATOM     47  O   UNL     1       5.278  -2.681   0.000  0.00  0.00    +0.000 OA
BRANCH  47  49
ATOM     48  O   UNL     1       5.993  -1.444   0.000  0.00  0.00    +0.000 OA
ATOM     49  C   UNL     1       5.993  -2.269   0.000  0.00  0.00    +0.000 C 
BRANCH  49  50
ATOM     50  C   UNL     1       6.707  -2.681   0.000  0.00  0.00    +0.000 C 
ATOM     51  C   UNL     1       6.707  -3.506   0.000  0.00  0.00    +0.000 C 
BRANCH  51  53
ATOM     52  O   UNL     1       9.565  -5.156   0.000  0.00  0.00    +0.000 OA
ATOM     53  C   UNL     1       7.422  -3.919   0.000  0.00  0.00    +0.000 A 
ATOM     54  C   UNL     1       7.422  -4.744   0.000  0.00  0.00    +0.000 A 
ATOM     55  C   UNL     1       8.136  -3.506   0.000  0.00  0.00    +0.000 A 
ATOM     56  C   UNL     1       8.136  -5.156   0.000  0.00  0.00    +0.000 A 
ATOM     57  C   UNL     1       8.851  -3.919   0.000  0.00  0.00    +0.000 A 
ATOM     58  C   UNL     1       8.851  -4.744   0.000  0.00  0.00    +0.000 A 
BRANCH  56  59
ATOM     59  O   UNL     1       8.136  -5.981   0.000  0.00  0.00    +0.000 OA
ATOM     60  C   UNL     1       7.422  -6.394   0.000  0.00  0.00    +0.000 C 
ENDBRANCH  56  59
ENDBRANCH  51  53
ENDBRANCH  49  50
ENDBRANCH  47  49
ENDBRANCH  40  47
ENDBRANCH  36  42
ENDBRANCH  35  36
ENDBRANCH   5  35
TORSDOF 14
