REMARK  Name = 131835083
REMARK  9 active torsions:
REMARK  status: ('A' for Active; 'I' for Inactive)
REMARK    1  A    between atoms: O_2  and  C_19
REMARK    2  A    between atoms: O_2  and  C_21
REMARK    3  A    between atoms: O_8  and  C_22
REMARK    4  A    between atoms: O_11  and  C_34
REMARK    5  A    between atoms: C_18  and  C_20
REMARK    6  A    between atoms: C_24  and  C_27
REMARK    7  A    between atoms: C_27  and  C_28
REMARK    8  A    between atoms: C_28  and  C_29
REMARK    9  A    between atoms: C_29  and  C_31
REMARK                            x       y       z     vdW  Elec       q    Type
REMARK                         _______ _______ _______ _____ _____    ______ ____
ROOT
ATOM      1  C   UNL     1       5.665  -1.159   0.000  0.00  0.00    +0.000 A 
ATOM      2  C   UNL     1       6.380  -0.747   0.000  0.00  0.00    +0.000 A 
ATOM      3  C   UNL     1       4.951  -0.747   0.000  0.00  0.00    +0.000 A 
ATOM      4  C   UNL     1       5.665   0.491   0.000  0.00  0.00    +0.000 A 
ATOM      5  C   UNL     1       6.380   0.078   0.000  0.00  0.00    +0.000 A 
ATOM      6  C   UNL     1       4.951   0.078   0.000  0.00  0.00    +0.000 A 
ENDROOT
BRANCH   2   7
ATOM      7  O   UNL     1       7.094  -1.159   0.000  0.00  0.00    +0.000 OA
ATOM      8  C   UNL     1       7.809  -0.747   0.000  0.00  0.00    +0.000 C 
ENDBRANCH   2   7
BRANCH   1   9
ATOM      9  O   UNL     1       5.665  -1.984   0.000  0.00  0.00    +0.000 OA
BRANCH   9  18
ATOM     10  O   UNL     1       4.236  -1.984   0.000  0.00  0.00    +0.000 OA
ATOM     11  O   UNL     1       4.236  -4.459   0.000  0.00  0.00    +0.000 OA
ATOM     12  O   UNL     1       2.808  -3.634   0.000  0.00  0.00    +0.000 OA
ATOM     13  O   UNL     1       5.665  -3.634   0.000  0.00  0.00    +0.000 OA
ATOM     14  C   UNL     1       4.236  -3.634   0.000  0.00  0.00    +0.000 C 
ATOM     15  C   UNL     1       3.522  -3.222   0.000  0.00  0.00    +0.000 C 
ATOM     16  C   UNL     1       4.951  -3.222   0.000  0.00  0.00    +0.000 C 
ATOM     17  C   UNL     1       3.522  -2.397   0.000  0.00  0.00    +0.000 C 
ATOM     18  C   UNL     1       4.951  -2.397   0.000  0.00  0.00    +0.000 C 
BRANCH  17  21
ATOM     19  O   UNL     1       2.093  -2.397   0.000  0.00  0.00    +0.000 OA
ATOM     20  O   UNL     1       2.808  -1.159   0.000  0.00  0.00    +0.000 OA
ATOM     21  C   UNL     1       2.808  -1.984   0.000  0.00  0.00    +0.000 C 
ENDBRANCH  17  21
ENDBRANCH   9  18
ENDBRANCH   1   9
BRANCH   4  22
ATOM     22  C   UNL     1       5.665   1.316   0.000  0.00  0.00    +0.000 C 
BRANCH  22  24
ATOM     23  O   UNL     1       7.094   1.316   0.000  0.00  0.00    +0.000 OA
ATOM     24  C   UNL     1       6.380   1.728   0.000  0.00  0.00    +0.000 C 
BRANCH  24  26
ATOM     25  O   UNL     1       5.665   2.966   0.000  0.00  0.00    +0.000 OA
ATOM     26  C   UNL     1       6.380   2.553   0.000  0.00  0.00    +0.000 C 
BRANCH  26  30
ATOM     27  O   UNL     1       7.809   1.728   0.000  0.00  0.00    +0.000 OA
ATOM     28  O   UNL     1       6.380   4.203   0.000  0.00  0.00    +0.000 OA
ATOM     29  O   UNL     1       9.238   4.203   0.000  0.00  0.00    +0.000 OA
ATOM     30  C   UNL     1       7.094   2.966   0.000  0.00  0.00    +0.000 A 
ATOM     31  C   UNL     1       7.809   2.553   0.000  0.00  0.00    +0.000 A 
ATOM     32  C   UNL     1       7.094   3.791   0.000  0.00  0.00    +0.000 A 
ATOM     33  C   UNL     1       8.523   2.966   0.000  0.00  0.00    +0.000 A 
ATOM     34  C   UNL     1       7.809   4.203   0.000  0.00  0.00    +0.000 A 
ATOM     35  C   UNL     1       8.523   3.791   0.000  0.00  0.00    +0.000 A 
BRANCH  33  36
ATOM     36  O   UNL     1       9.238   2.553   0.000  0.00  0.00    +0.000 OA
ATOM     37  C   UNL     1       9.952   2.966   0.000  0.00  0.00    +0.000 C 
ENDBRANCH  33  36
ENDBRANCH  26  30
ENDBRANCH  24  26
ENDBRANCH  22  24
ENDBRANCH   4  22
TORSDOF 9
