REMARK  Name = 146492
REMARK  2 active torsions:
REMARK  status: ('A' for Active; 'I' for Inactive)
REMARK    1  A    between atoms: O_2  and  C_10
REMARK    2  A    between atoms: C_4  and  C_5
REMARK                            x       y       z     vdW  Elec       q    Type
REMARK                         _______ _______ _______ _____ _____    ______ ____
ROOT
ATOM      1  O   UNL     1       3.849  -0.206   0.000  0.00  0.00    +0.000 OA
ATOM      2  O   UNL     1       3.849   2.269   0.000  0.00  0.00    +0.000 OA
ATOM      3  C   UNL     1       4.564   0.206   0.000  0.00  0.00    +0.000 A 
ATOM      4  C   UNL     1       3.135   1.031   0.000  0.00  0.00    +0.000 A 
ATOM      5  C   UNL     1       3.135   0.206   0.000  0.00  0.00    +0.000 A 
ATOM      6  C   UNL     1       4.564   1.031   0.000  0.00  0.00    +0.000 A 
ATOM      7  C   UNL     1       3.849   1.444   0.000  0.00  0.00    +0.000 A 
ATOM      8  C   UNL     1       2.397   1.472   0.000  0.00  0.00    +0.000 A 
ATOM      9  C   UNL     1       2.397  -0.235   0.000  0.00  0.00    +0.000 A 
ATOM     10  C   UNL     1       1.650   1.048   0.000  0.00  0.00    +0.000 A 
ATOM     11  C   UNL     1       1.650   0.189   0.000  0.00  0.00    +0.000 A 
ENDROOT
BRANCH   3  12
ATOM     12  C   UNL     1       5.278  -0.206   0.000  0.00  0.00    +0.000 A 
ATOM     13  C   UNL     1       5.278  -1.031   0.000  0.00  0.00    +0.000 A 
ATOM     14  C   UNL     1       5.993   0.206   0.000  0.00  0.00    +0.000 A 
ATOM     15  C   UNL     1       5.993  -1.444   0.000  0.00  0.00    +0.000 A 
ATOM     16  C   UNL     1       6.707  -0.206   0.000  0.00  0.00    +0.000 A 
ATOM     17  C   UNL     1       6.707  -1.031   0.000  0.00  0.00    +0.000 A 
BRANCH  13  18
ATOM     18  O   UNL     1       4.564  -1.444   0.000  0.00  0.00    +0.000 OA
ATOM     19  C   UNL     1       4.564  -2.269   0.000  0.00  0.00    +0.000 C 
ENDBRANCH  13  18
ENDBRANCH   3  12
TORSDOF 2
