REMARK  Name = 44260013
REMARK  9 active torsions:
REMARK  status: ('A' for Active; 'I' for Inactive)
REMARK    1  A    between atoms: O_1  and  C_19
REMARK    2  A    between atoms: O_1  and  C_22
REMARK    3  A    between atoms: O_5  and  C_24
REMARK    4  A    between atoms: O_5  and  C_31
REMARK    5  A    between atoms: O_10  and  C_29
REMARK    6  A    between atoms: O_10  and  C_34
REMARK    7  A    between atoms: O_17  and  C_45
REMARK    8  A    between atoms: C_23  and  C_29
REMARK    9  A    between atoms: C_40  and  C_42
REMARK                            x       y       z     vdW  Elec       q    Type
REMARK                         _______ _______ _______ _____ _____    ______ ____
ROOT
ATOM      1  O   UNL     1       6.651  -0.148   0.000  0.00  0.00    +0.000 OA
ENDROOT
BRANCH   1   7
ATOM      2  O   UNL     1       8.111   0.702   0.000  0.00  0.00    +0.000 OA
ATOM      3  O   UNL     1       8.100   2.378   0.000  0.00  0.00    +0.000 OA
ATOM      4  O   UNL     1       5.211   2.392   0.000  0.00  0.00    +0.000 OA
ATOM      5  O   UNL     1       5.961   3.624   0.000  0.00  0.00    +0.000 OA
ATOM      6  O   UNL     1       7.394   4.444   0.000  0.00  0.00    +0.000 OA
ATOM      7  C   UNL     1       6.651   0.677   0.000  0.00  0.00    +0.000 A 
ATOM      8  C   UNL     1       7.394   1.109   0.000  0.00  0.00    +0.000 A 
ATOM      9  C   UNL     1       5.909   1.109   0.000  0.00  0.00    +0.000 A 
ATOM     10  C   UNL     1       7.384   1.969   0.000  0.00  0.00    +0.000 A 
ATOM     11  C   UNL     1       5.919   1.969   0.000  0.00  0.00    +0.000 A 
ATOM     12  C   UNL     1       6.671   2.384   0.000  0.00  0.00    +0.000 A 
ATOM     13  C   UNL     1       6.674   3.209   0.000  0.00  0.00    +0.000 A 
ATOM     14  C   UNL     1       8.103   3.203   0.000  0.00  0.00    +0.000 A 
ATOM     15  C   UNL     1       7.390   3.619   0.000  0.00  0.00    +0.000 A 
BRANCH  14  17
ATOM     16  O   UNL     1      10.967   4.842   0.000  0.00  0.00    +0.000 OA
ATOM     17  C   UNL     1       8.819   3.613   0.000  0.00  0.00    +0.000 A 
ATOM     18  C   UNL     1       9.532   3.198   0.000  0.00  0.00    +0.000 A 
ATOM     19  C   UNL     1       8.822   4.438   0.000  0.00  0.00    +0.000 A 
ATOM     20  C   UNL     1      10.248   3.608   0.000  0.00  0.00    +0.000 A 
ATOM     21  C   UNL     1       9.538   4.848   0.000  0.00  0.00    +0.000 A 
ATOM     22  C   UNL     1      10.251   4.433   0.000  0.00  0.00    +0.000 A 
BRANCH  20  23
ATOM     23  O   UNL     1      10.961   3.192   0.000  0.00  0.00    +0.000 OA
ATOM     24  C   UNL     1      11.677   3.602   0.000  0.00  0.00    +0.000 C 
ENDBRANCH  20  23
ENDBRANCH  14  17
ENDBRANCH   1   7
BRANCH   1  32
ATOM     25  O   UNL     1       5.222  -0.148   0.000  0.00  0.00    +0.000 OA
ATOM     26  O   UNL     1       5.222  -2.623   0.000  0.00  0.00    +0.000 OA
ATOM     27  O   UNL     1       3.793  -1.798   0.000  0.00  0.00    +0.000 OA
ATOM     28  C   UNL     1       5.937  -1.386   0.000  0.00  0.00    +0.000 C 
ATOM     29  C   UNL     1       5.222  -1.798   0.000  0.00  0.00    +0.000 C 
ATOM     30  C   UNL     1       4.508  -1.386   0.000  0.00  0.00    +0.000 C 
ATOM     31  C   UNL     1       4.508  -0.561   0.000  0.00  0.00    +0.000 C 
ATOM     32  C   UNL     1       5.937  -0.561   0.000  0.00  0.00    +0.000 C 
BRANCH  28  33
ATOM     33  O   UNL     1       6.651  -1.798   0.000  0.00  0.00    +0.000 OA
BRANCH  33  38
ATOM     34  O   UNL     1       5.937  -3.036   0.000  0.00  0.00    +0.000 OA
ATOM     35  O   UNL     1       8.080  -2.623   0.000  0.00  0.00    +0.000 OA
ATOM     36  O   UNL     1       8.080  -4.273   0.000  0.00  0.00    +0.000 OA
ATOM     37  O   UNL     1       6.651  -5.098   0.000  0.00  0.00    +0.000 OA
ATOM     38  C   UNL     1       6.651  -2.623   0.000  0.00  0.00    +0.000 C 
ATOM     39  C   UNL     1       7.366  -3.036   0.000  0.00  0.00    +0.000 C 
ATOM     40  C   UNL     1       7.366  -3.861   0.000  0.00  0.00    +0.000 C 
ATOM     41  C   UNL     1       6.651  -4.273   0.000  0.00  0.00    +0.000 C 
ATOM     42  C   UNL     1       5.937  -3.861   0.000  0.00  0.00    +0.000 C 
ATOM     43  C   UNL     1       5.222  -4.273   0.000  0.00  0.00    +0.000 C 
ENDBRANCH  33  38
ENDBRANCH  28  33
BRANCH  31  44
ATOM     44  C   UNL     1       3.793  -0.148   0.000  0.00  0.00    +0.000 C 
BRANCH  44  45
ATOM     45  O   UNL     1       3.079  -0.561   0.000  0.00  0.00    +0.000 OA
BRANCH  45  47
ATOM     46  O   UNL     1       2.364   0.677   0.000  0.00  0.00    +0.000 OA
ATOM     47  C   UNL     1       2.364  -0.148   0.000  0.00  0.00    +0.000 C 
ATOM     48  C   UNL     1       1.650  -0.561   0.000  0.00  0.00    +0.000 C 
ENDBRANCH  45  47
ENDBRANCH  44  45
ENDBRANCH  31  44
ENDBRANCH   1  32
TORSDOF 9
