REMARK  Name = 131752199
REMARK  7 active torsions:
REMARK  status: ('A' for Active; 'I' for Inactive)
REMARK    1  A    between atoms: O_1  and  C_16
REMARK    2  A    between atoms: O_1  and  C_19
REMARK    3  A    between atoms: O_5  and  C_24
REMARK    4  A    between atoms: O_5  and  C_28
REMARK    5  A    between atoms: C_18  and  C_26
REMARK    6  A    between atoms: C_25  and  C_27
REMARK    7  A    between atoms: C_31  and  C_37
REMARK                            x       y       z     vdW  Elec       q    Type
REMARK                         _______ _______ _______ _____ _____    ______ ____
ROOT
ATOM      1  O   UNL     1       4.951  -0.920   0.000  0.00  0.00    +0.000 OA
ATOM      2  O   UNL     1       7.094  -2.158   0.000  0.00  0.00    +0.000 OA
ATOM      3  O   UNL     1       7.094  -0.508   0.000  0.00  0.00    +0.000 OA
ATOM      4  C   UNL     1       5.665  -2.158   0.000  0.00  0.00    +0.000 C 
ATOM      5  C   UNL     1       6.380  -1.745   0.000  0.00  0.00    +0.000 C 
ATOM      6  C   UNL     1       4.951  -1.745   0.000  0.00  0.00    +0.000 C 
ATOM      7  C   UNL     1       6.380  -0.920   0.000  0.00  0.00    +0.000 C 
ATOM      8  C   UNL     1       5.665  -0.508   0.000  0.00  0.00    +0.000 C 
ENDROOT
BRANCH   6  10
ATOM      9  O   UNL     1       3.522  -1.745   0.000  0.00  0.00    +0.000 OA
ATOM     10  C   UNL     1       4.236  -2.158   0.000  0.00  0.00    +0.000 C 
ENDBRANCH   6  10
BRANCH   4  11
ATOM     11  O   UNL     1       5.665  -2.983   0.000  0.00  0.00    +0.000 OA
BRANCH  11  16
ATOM     12  O   UNL     1       4.236  -2.983   0.000  0.00  0.00    +0.000 OA
ATOM     13  O   UNL     1       5.665  -4.633   0.000  0.00  0.00    +0.000 OA
ATOM     14  O   UNL     1       4.236  -5.458   0.000  0.00  0.00    +0.000 OA
ATOM     15  O   UNL     1       2.808  -4.633   0.000  0.00  0.00    +0.000 OA
ATOM     16  C   UNL     1       4.951  -3.395   0.000  0.00  0.00    +0.000 C 
ATOM     17  C   UNL     1       4.951  -4.220   0.000  0.00  0.00    +0.000 C 
ATOM     18  C   UNL     1       4.236  -4.633   0.000  0.00  0.00    +0.000 C 
ATOM     19  C   UNL     1       3.522  -4.220   0.000  0.00  0.00    +0.000 C 
ATOM     20  C   UNL     1       3.522  -3.395   0.000  0.00  0.00    +0.000 C 
BRANCH  20  22
ATOM     21  O   UNL     1       2.093  -3.395   0.000  0.00  0.00    +0.000 OA
ATOM     22  C   UNL     1       2.808  -2.983   0.000  0.00  0.00    +0.000 C 
ENDBRANCH  20  22
ENDBRANCH  11  16
ENDBRANCH   4  11
BRANCH   8  23
ATOM     23  O   UNL     1       5.665   0.317   0.000  0.00  0.00    +0.000 OA
BRANCH  23  28
ATOM     24  O   UNL     1       4.247   2.835   0.000  0.00  0.00    +0.000 OA
ATOM     25  O   UNL     1       6.396   3.222   0.000  0.00  0.00    +0.000 OA
ATOM     26  O   UNL     1       6.376   1.572   0.000  0.00  0.00    +0.000 OA
ATOM     27  O   UNL     1       2.745   0.340   0.000  0.00  0.00    +0.000 OA
ATOM     28  C   UNL     1       4.951   0.730   0.000  0.00  0.00    +0.000 A 
ATOM     29  C   UNL     1       4.947   1.589   0.000  0.00  0.00    +0.000 A 
ATOM     30  C   UNL     1       5.676   2.818   0.000  0.00  0.00    +0.000 C 
ATOM     31  C   UNL     1       4.967   3.239   0.000  0.00  0.00    +0.000 C 
ATOM     32  C   UNL     1       4.238   2.010   0.000  0.00  0.00    +0.000 A 
ATOM     33  C   UNL     1       5.667   1.993   0.000  0.00  0.00    +0.000 C 
ATOM     34  C   UNL     1       4.205   0.303   0.000  0.00  0.00    +0.000 A 
ATOM     35  C   UNL     1       3.482   1.600   0.000  0.00  0.00    +0.000 A 
ATOM     36  C   UNL     1       3.466   0.741   0.000  0.00  0.00    +0.000 A 
BRANCH  31  37
ATOM     37  C   UNL     1       4.976   4.064   0.000  0.00  0.00    +0.000 A 
ATOM     38  C   UNL     1       5.695   4.468   0.000  0.00  0.00    +0.000 A 
ATOM     39  C   UNL     1       4.266   4.484   0.000  0.00  0.00    +0.000 A 
ATOM     40  C   UNL     1       5.705   5.293   0.000  0.00  0.00    +0.000 A 
ATOM     41  C   UNL     1       4.276   5.309   0.000  0.00  0.00    +0.000 A 
ATOM     42  C   UNL     1       4.995   5.714   0.000  0.00  0.00    +0.000 A 
ENDBRANCH  31  37
ENDBRANCH  23  28
ENDBRANCH   8  23
TORSDOF 7
