REMARK  Name = 73813317
REMARK  4 active torsions:
REMARK  status: ('A' for Active; 'I' for Inactive)
REMARK    1  A    between atoms: O_2  and  C_16
REMARK    2  A    between atoms: O_2  and  C_23
REMARK    3  A    between atoms: C_15  and  C_18
REMARK    4  A    between atoms: C_17  and  C_21
REMARK                            x       y       z     vdW  Elec       q    Type
REMARK                         _______ _______ _______ _____ _____    ______ ____
ROOT
ATOM      1  O   UNL     1       7.843  -0.855   0.000  0.00  0.00    +0.000 OA
ATOM      2  C   UNL     1       5.700   0.383   0.000  0.00  0.00    +0.000 A 
ATOM      3  C   UNL     1       6.414  -0.855   0.000  0.00  0.00    +0.000 A 
ATOM      4  C   UNL     1       5.700  -0.442   0.000  0.00  0.00    +0.000 A 
ATOM      5  C   UNL     1       6.414   0.795   0.000  0.00  0.00    +0.000 A 
ATOM      6  C   UNL     1       7.129  -0.442   0.000  0.00  0.00    +0.000 A 
ATOM      7  C   UNL     1       7.129   0.383   0.000  0.00  0.00    +0.000 A 
ENDROOT
BRANCH   2  12
ATOM      8  O   UNL     1       4.985   1.621   0.000  0.00  0.00    +0.000 OA
ATOM      9  O   UNL     1       4.271  -0.442   0.000  0.00  0.00    +0.000 OA
ATOM     10  O   UNL     1       2.096   1.618   0.000  0.00  0.00    +0.000 OA
ATOM     11  O   UNL     1       3.546   4.153   0.000  0.00  0.00    +0.000 OA
ATOM     12  C   UNL     1       4.985   0.795   0.000  0.00  0.00    +0.000 C 
ATOM     13  C   UNL     1       4.271   0.383   0.000  0.00  0.00    +0.000 C 
ATOM     14  C   UNL     1       3.556   0.795   0.000  0.00  0.00    +0.000 C 
ATOM     15  C   UNL     1       3.556   1.621   0.000  0.00  0.00    +0.000 A 
ATOM     16  C   UNL     1       4.271   2.033   0.000  0.00  0.00    +0.000 A 
ATOM     17  C   UNL     1       2.806   2.039   0.000  0.00  0.00    +0.000 A 
ATOM     18  C   UNL     1       4.284   2.892   0.000  0.00  0.00    +0.000 A 
ATOM     19  C   UNL     1       2.799   2.898   0.000  0.00  0.00    +0.000 A 
ATOM     20  C   UNL     1       3.543   3.328   0.000  0.00  0.00    +0.000 A 
ENDBRANCH   2  12
BRANCH   3  21
ATOM     21  O   UNL     1       6.414  -1.679   0.000  0.00  0.00    +0.000 OA
BRANCH  21  30
ATOM     22  O   UNL     1       4.985  -1.679   0.000  0.00  0.00    +0.000 OA
ATOM     23  O   UNL     1       4.985  -4.154   0.000  0.00  0.00    +0.000 OA
ATOM     24  O   UNL     1       3.556  -3.329   0.000  0.00  0.00    +0.000 OA
ATOM     25  O   UNL     1       6.414  -3.329   0.000  0.00  0.00    +0.000 OA
ATOM     26  C   UNL     1       4.985  -3.329   0.000  0.00  0.00    +0.000 C 
ATOM     27  C   UNL     1       4.271  -2.917   0.000  0.00  0.00    +0.000 C 
ATOM     28  C   UNL     1       5.700  -2.917   0.000  0.00  0.00    +0.000 C 
ATOM     29  C   UNL     1       4.271  -2.092   0.000  0.00  0.00    +0.000 C 
ATOM     30  C   UNL     1       5.700  -2.092   0.000  0.00  0.00    +0.000 C 
BRANCH  29  32
ATOM     31  O   UNL     1       2.842  -2.092   0.000  0.00  0.00    +0.000 OA
ATOM     32  C   UNL     1       3.556  -1.679   0.000  0.00  0.00    +0.000 C 
ENDBRANCH  29  32
ENDBRANCH  21  30
ENDBRANCH   3  21
TORSDOF 4
