REMARK  Name = 73829938
REMARK  7 active torsions:
REMARK  status: ('A' for Active; 'I' for Inactive)
REMARK    1  A    between atoms: O_2  and  C_18
REMARK    2  A    between atoms: O_2  and  C_20
REMARK    3  A    between atoms: O_7  and  C_21
REMARK    4  A    between atoms: O_9  and  C_31
REMARK    5  A    between atoms: O_10  and  C_33
REMARK    6  A    between atoms: C_16  and  C_19
REMARK    7  A    between atoms: C_23  and  C_26
REMARK                            x       y       z     vdW  Elec       q    Type
REMARK                         _______ _______ _______ _____ _____    ______ ____
ROOT
ATOM      1  C   UNL     1       5.665  -1.548   0.000  0.00  0.00    +0.000 A 
ATOM      2  C   UNL     1       4.951  -1.135   0.000  0.00  0.00    +0.000 A 
ATOM      3  C   UNL     1       6.380  -1.135   0.000  0.00  0.00    +0.000 A 
ATOM      4  C   UNL     1       5.665   0.102   0.000  0.00  0.00    +0.000 A 
ATOM      5  C   UNL     1       4.951  -0.310   0.000  0.00  0.00    +0.000 A 
ATOM      6  C   UNL     1       6.380  -0.310   0.000  0.00  0.00    +0.000 A 
ENDROOT
BRANCH   4  11
ATOM      7  O   UNL     1       6.408   1.360   0.000  0.00  0.00    +0.000 OA
ATOM      8  O   UNL     1       4.975   3.874   0.000  0.00  0.00    +0.000 OA
ATOM      9  O   UNL     1       4.225   2.642   0.000  0.00  0.00    +0.000 OA
ATOM     10  O   UNL     1       7.833   3.863   0.000  0.00  0.00    +0.000 OA
ATOM     11  C   UNL     1       5.665   0.927   0.000  0.00  0.00    +0.000 A 
ATOM     12  C   UNL     1       6.398   2.219   0.000  0.00  0.00    +0.000 A 
ATOM     13  C   UNL     1       5.685   2.634   0.000  0.00  0.00    +0.000 A 
ATOM     14  C   UNL     1       4.923   1.360   0.000  0.00  0.00    +0.000 A 
ATOM     15  C   UNL     1       4.933   2.219   0.000  0.00  0.00    +0.000 A 
ATOM     16  C   UNL     1       7.114   2.629   0.000  0.00  0.00    +0.000 A 
ATOM     17  C   UNL     1       5.688   3.459   0.000  0.00  0.00    +0.000 A 
ATOM     18  C   UNL     1       6.404   3.869   0.000  0.00  0.00    +0.000 A 
ATOM     19  C   UNL     1       7.117   3.454   0.000  0.00  0.00    +0.000 A 
BRANCH  16  20
ATOM     20  O   UNL     1       7.827   2.213   0.000  0.00  0.00    +0.000 OA
ATOM     21  C   UNL     1       8.543   2.623   0.000  0.00  0.00    +0.000 C 
ENDBRANCH  16  20
BRANCH  18  22
ATOM     22  O   UNL     1       6.407   4.694   0.000  0.00  0.00    +0.000 OA
ATOM     23  C   UNL     1       7.123   5.104   0.000  0.00  0.00    +0.000 C 
ENDBRANCH  18  22
ENDBRANCH   4  11
BRANCH   2  24
ATOM     24  O   UNL     1       4.236  -1.548   0.000  0.00  0.00    +0.000 OA
ATOM     25  C   UNL     1       3.522  -1.135   0.000  0.00  0.00    +0.000 C 
ENDBRANCH   2  24
BRANCH   1  26
ATOM     26  O   UNL     1       5.665  -2.373   0.000  0.00  0.00    +0.000 OA
BRANCH  26  35
ATOM     27  O   UNL     1       4.236  -2.373   0.000  0.00  0.00    +0.000 OA
ATOM     28  O   UNL     1       4.236  -4.848   0.000  0.00  0.00    +0.000 OA
ATOM     29  O   UNL     1       2.808  -4.023   0.000  0.00  0.00    +0.000 OA
ATOM     30  O   UNL     1       5.665  -4.023   0.000  0.00  0.00    +0.000 OA
ATOM     31  C   UNL     1       4.236  -4.023   0.000  0.00  0.00    +0.000 C 
ATOM     32  C   UNL     1       3.522  -3.610   0.000  0.00  0.00    +0.000 C 
ATOM     33  C   UNL     1       3.522  -2.785   0.000  0.00  0.00    +0.000 C 
ATOM     34  C   UNL     1       4.951  -3.610   0.000  0.00  0.00    +0.000 C 
ATOM     35  C   UNL     1       4.951  -2.785   0.000  0.00  0.00    +0.000 C 
BRANCH  33  37
ATOM     36  O   UNL     1       2.093  -2.785   0.000  0.00  0.00    +0.000 OA
ATOM     37  C   UNL     1       2.808  -2.373   0.000  0.00  0.00    +0.000 C 
ENDBRANCH  33  37
ENDBRANCH  26  35
ENDBRANCH   1  26
TORSDOF 7
