REMARK  Name = 131752835
REMARK  13 active torsions:
REMARK  status: ('A' for Active; 'I' for Inactive)
REMARK    1  A    between atoms: O_1  and  C_24
REMARK    2  A    between atoms: O_1  and  C_26
REMARK    3  A    between atoms: O_4  and  C_30
REMARK    4  A    between atoms: O_4  and  C_41
REMARK    5  A    between atoms: O_11  and  C_34
REMARK    6  A    between atoms: O_11  and  C_48
REMARK    7  A    between atoms: O_12  and  C_40
REMARK    8  A    between atoms: O_12  and  C_47
REMARK    9  A    between atoms: C_33  and  C_34
REMARK   10  A    between atoms: C_39  and  C_42
REMARK   11  A    between atoms: C_43  and  C_50
REMARK   12  A    between atoms: C_48  and  C_53
REMARK   13  A    between atoms: C_58  and  C_60
REMARK                            x       y       z     vdW  Elec       q    Type
REMARK                         _______ _______ _______ _____ _____    ______ ____
ROOT
ATOM      1  O   UNL     1       9.238  -1.395   0.000  0.00  0.00    +0.000 OA
ENDROOT
BRANCH   1   5
ATOM      2  O   UNL     1       9.952   0.667   0.000  0.00  0.00    +0.000 OA
ATOM      3  O   UNL     1       7.809  -0.570   0.000  0.00  0.00    +0.000 OA
ATOM      4  O   UNL     1       7.063   0.665   0.000  0.00  0.00    +0.000 OA
ATOM      5  C   UNL     1       9.238  -0.570   0.000  0.00  0.00    +0.000 A 
ATOM      6  C   UNL     1       9.952  -0.158   0.000  0.00  0.00    +0.000 A 
ATOM      7  C   UNL     1       8.523  -0.158   0.000  0.00  0.00    +0.000 A 
ATOM      8  C   UNL     1       8.523   0.667   0.000  0.00  0.00    +0.000 A 
ATOM      9  C   UNL     1       9.238   1.080   0.000  0.00  0.00    +0.000 A 
ATOM     10  C   UNL     1       8.510   2.374   0.000  0.00  0.00    +0.000 A 
ATOM     11  C   UNL     1       9.251   1.939   0.000  0.00  0.00    +0.000 A 
ATOM     12  C   UNL     1       7.772   1.085   0.000  0.00  0.00    +0.000 A 
ATOM     13  C   UNL     1       7.766   1.945   0.000  0.00  0.00    +0.000 A 
BRANCH   6  16
ATOM     14  O   UNL     1      12.810  -0.158   0.000  0.00  0.00    +0.000 OA
ATOM     15  O   UNL     1      12.810  -1.808   0.000  0.00  0.00    +0.000 OA
ATOM     16  C   UNL     1      10.667  -0.570   0.000  0.00  0.00    +0.000 A 
ATOM     17  C   UNL     1      11.381  -0.158   0.000  0.00  0.00    +0.000 A 
ATOM     18  C   UNL     1      10.667  -1.395   0.000  0.00  0.00    +0.000 A 
ATOM     19  C   UNL     1      12.096  -0.570   0.000  0.00  0.00    +0.000 A 
ATOM     20  C   UNL     1      11.381  -1.808   0.000  0.00  0.00    +0.000 A 
ATOM     21  C   UNL     1      12.096  -1.395   0.000  0.00  0.00    +0.000 A 
ENDBRANCH   6  16
BRANCH  10  22
ATOM     22  O   UNL     1       8.513   3.199   0.000  0.00  0.00    +0.000 OA
BRANCH  22  31
ATOM     23  O   UNL     1       7.803   4.440   0.000  0.00  0.00    +0.000 OA
ATOM     24  O   UNL     1       5.655   3.210   0.000  0.00  0.00    +0.000 OA
ATOM     25  O   UNL     1       5.662   4.860   0.000  0.00  0.00    +0.000 OA
ATOM     26  O   UNL     1       7.081   2.380   0.000  0.00  0.00    +0.000 OA
ATOM     27  C   UNL     1       6.371   3.620   0.000  0.00  0.00    +0.000 C 
ATOM     28  C   UNL     1       6.375   4.445   0.000  0.00  0.00    +0.000 C 
ATOM     29  C   UNL     1       7.084   3.205   0.000  0.00  0.00    +0.000 C 
ATOM     30  C   UNL     1       7.091   4.855   0.000  0.00  0.00    +0.000 C 
ATOM     31  C   UNL     1       7.800   3.615   0.000  0.00  0.00    +0.000 C 
BRANCH  30  33
ATOM     32  O   UNL     1       7.810   6.090   0.000  0.00  0.00    +0.000 OA
ATOM     33  C   UNL     1       7.094   5.680   0.000  0.00  0.00    +0.000 C 
ENDBRANCH  30  33
ENDBRANCH  22  31
ENDBRANCH  10  22
ENDBRANCH   1   5
BRANCH   1  40
ATOM     34  O   UNL     1       7.809  -1.395   0.000  0.00  0.00    +0.000 OA
ATOM     35  O   UNL     1       7.809  -3.870   0.000  0.00  0.00    +0.000 OA
ATOM     36  O   UNL     1       6.380  -3.045   0.000  0.00  0.00    +0.000 OA
ATOM     37  C   UNL     1       8.523  -2.633   0.000  0.00  0.00    +0.000 C 
ATOM     38  C   UNL     1       7.809  -3.045   0.000  0.00  0.00    +0.000 C 
ATOM     39  C   UNL     1       7.094  -2.633   0.000  0.00  0.00    +0.000 C 
ATOM     40  C   UNL     1       8.523  -1.808   0.000  0.00  0.00    +0.000 C 
ATOM     41  C   UNL     1       7.094  -1.808   0.000  0.00  0.00    +0.000 C 
ATOM     42  C   UNL     1       6.380  -1.395   0.000  0.00  0.00    +0.000 C 
BRANCH  37  43
ATOM     43  O   UNL     1       9.238  -3.045   0.000  0.00  0.00    +0.000 OA
BRANCH  43  48
ATOM     44  O   UNL     1       8.523  -4.283   0.000  0.00  0.00    +0.000 OA
ATOM     45  O   UNL     1      10.667  -3.870   0.000  0.00  0.00    +0.000 OA
ATOM     46  O   UNL     1      10.667  -5.520   0.000  0.00  0.00    +0.000 OA
ATOM     47  O   UNL     1       9.238  -6.345   0.000  0.00  0.00    +0.000 OA
ATOM     48  C   UNL     1       9.238  -3.870   0.000  0.00  0.00    +0.000 C 
ATOM     49  C   UNL     1       9.952  -4.283   0.000  0.00  0.00    +0.000 C 
ATOM     50  C   UNL     1       9.952  -5.108   0.000  0.00  0.00    +0.000 C 
ATOM     51  C   UNL     1       9.238  -5.520   0.000  0.00  0.00    +0.000 C 
ATOM     52  C   UNL     1       8.523  -5.108   0.000  0.00  0.00    +0.000 C 
BRANCH  52  53
ATOM     53  C   UNL     1       7.809  -5.520   0.000  0.00  0.00    +0.000 C 
BRANCH  53  54
ATOM     54  O   UNL     1       7.094  -5.108   0.000  0.00  0.00    +0.000 OA
BRANCH  54  56
ATOM     55  O   UNL     1       6.380  -6.345   0.000  0.00  0.00    +0.000 OA
ATOM     56  C   UNL     1       6.380  -5.520   0.000  0.00  0.00    +0.000 C 
BRANCH  56  57
ATOM     57  C   UNL     1       5.665  -5.108   0.000  0.00  0.00    +0.000 C 
ATOM     58  C   UNL     1       4.951  -5.520   0.000  0.00  0.00    +0.000 C 
BRANCH  58  60
ATOM     59  O   UNL     1       2.093  -3.870   0.000  0.00  0.00    +0.000 OA
ATOM     60  C   UNL     1       4.236  -5.108   0.000  0.00  0.00    +0.000 A 
ATOM     61  C   UNL     1       4.236  -4.283   0.000  0.00  0.00    +0.000 A 
ATOM     62  C   UNL     1       3.522  -5.520   0.000  0.00  0.00    +0.000 A 
ATOM     63  C   UNL     1       3.522  -3.870   0.000  0.00  0.00    +0.000 A 
ATOM     64  C   UNL     1       2.808  -5.108   0.000  0.00  0.00    +0.000 A 
ATOM     65  C   UNL     1       2.808  -4.283   0.000  0.00  0.00    +0.000 A 
ENDBRANCH  58  60
ENDBRANCH  56  57
ENDBRANCH  54  56
ENDBRANCH  53  54
ENDBRANCH  52  53
ENDBRANCH  43  48
ENDBRANCH  37  43
ENDBRANCH   1  40
TORSDOF 13
