REMARK  Name = 131752173
REMARK  8 active torsions:
REMARK  status: ('A' for Active; 'I' for Inactive)
REMARK    1  A    between atoms: O_2  and  C_18
REMARK    2  A    between atoms: O_2  and  C_20
REMARK    3  A    between atoms: O_10  and  C_34
REMARK    4  A    between atoms: O_10  and  C_35
REMARK    5  A    between atoms: C_16  and  C_19
REMARK    6  A    between atoms: C_27  and  C_29
REMARK    7  A    between atoms: C_35  and  C_37
REMARK    8  A    between atoms: C_36  and  C_38
REMARK                            x       y       z     vdW  Elec       q    Type
REMARK                         _______ _______ _______ _____ _____    ______ ____
ROOT
ATOM      1  O   UNL     1       7.114  -1.000   0.000  0.00  0.00    +0.000 OA
ATOM      2  O   UNL     1       4.225  -0.987   0.000  0.00  0.00    +0.000 OA
ATOM      3  O   UNL     1       4.975   0.245   0.000  0.00  0.00    +0.000 OA
ATOM      4  C   UNL     1       5.665  -2.702   0.000  0.00  0.00    +0.000 A 
ATOM      5  C   UNL     1       6.408  -2.269   0.000  0.00  0.00    +0.000 A 
ATOM      6  C   UNL     1       4.923  -2.269   0.000  0.00  0.00    +0.000 A 
ATOM      7  C   UNL     1       6.398  -1.410   0.000  0.00  0.00    +0.000 A 
ATOM      8  C   UNL     1       5.685  -0.995   0.000  0.00  0.00    +0.000 A 
ATOM      9  C   UNL     1       4.933  -1.410   0.000  0.00  0.00    +0.000 A 
ATOM     10  C   UNL     1       5.688  -0.170   0.000  0.00  0.00    +0.000 A 
ATOM     11  C   UNL     1       7.117  -0.175   0.000  0.00  0.00    +0.000 A 
ATOM     12  C   UNL     1       6.404   0.240   0.000  0.00  0.00    +0.000 A 
ENDROOT
BRANCH  11  13
ATOM     13  C   UNL     1       7.833   0.234   0.000  0.00  0.00    +0.000 A 
ATOM     14  C   UNL     1       7.836   1.059   0.000  0.00  0.00    +0.000 A 
ATOM     15  C   UNL     1       8.546  -0.181   0.000  0.00  0.00    +0.000 A 
ATOM     16  C   UNL     1       8.552   1.469   0.000  0.00  0.00    +0.000 A 
ATOM     17  C   UNL     1       9.262   0.229   0.000  0.00  0.00    +0.000 A 
ATOM     18  C   UNL     1       9.265   1.054   0.000  0.00  0.00    +0.000 A 
BRANCH  18  19
ATOM     19  O   UNL     1       9.981   1.464   0.000  0.00  0.00    +0.000 OA
BRANCH  19  21
ATOM     20  O   UNL     1       9.272   2.704   0.000  0.00  0.00    +0.000 OA
ATOM     21  C   UNL     1       9.985   2.288   0.000  0.00  0.00    +0.000 C 
BRANCH  21  22
ATOM     22  C   UNL     1      10.701   2.698   0.000  0.00  0.00    +0.000 C 
ATOM     23  C   UNL     1      10.704   3.523   0.000  0.00  0.00    +0.000 C 
BRANCH  23  26
ATOM     24  O   UNL     1       9.284   6.004   0.000  0.00  0.00    +0.000 OA
ATOM     25  O   UNL     1       7.852   5.184   0.000  0.00  0.00    +0.000 OA
ATOM     26  C   UNL     1       9.991   3.938   0.000  0.00  0.00    +0.000 A 
ATOM     27  C   UNL     1       9.994   4.763   0.000  0.00  0.00    +0.000 A 
ATOM     28  C   UNL     1       9.275   3.529   0.000  0.00  0.00    +0.000 A 
ATOM     29  C   UNL     1       9.281   5.179   0.000  0.00  0.00    +0.000 A 
ATOM     30  C   UNL     1       8.565   4.769   0.000  0.00  0.00    +0.000 A 
ATOM     31  C   UNL     1       8.562   3.944   0.000  0.00  0.00    +0.000 A 
ENDBRANCH  23  26
ENDBRANCH  21  22
ENDBRANCH  19  21
ENDBRANCH  18  19
ENDBRANCH  11  13
BRANCH   4  32
ATOM     32  O   UNL     1       5.665  -3.527   0.000  0.00  0.00    +0.000 OA
BRANCH  32  41
ATOM     33  O   UNL     1       4.236  -3.527   0.000  0.00  0.00    +0.000 OA
ATOM     34  O   UNL     1       2.808  -5.177   0.000  0.00  0.00    +0.000 OA
ATOM     35  O   UNL     1       4.236  -6.002   0.000  0.00  0.00    +0.000 OA
ATOM     36  O   UNL     1       5.665  -5.177   0.000  0.00  0.00    +0.000 OA
ATOM     37  C   UNL     1       3.522  -4.764   0.000  0.00  0.00    +0.000 C 
ATOM     38  C   UNL     1       4.236  -5.177   0.000  0.00  0.00    +0.000 C 
ATOM     39  C   UNL     1       3.522  -3.939   0.000  0.00  0.00    +0.000 C 
ATOM     40  C   UNL     1       4.951  -4.764   0.000  0.00  0.00    +0.000 C 
ATOM     41  C   UNL     1       4.951  -3.939   0.000  0.00  0.00    +0.000 C 
BRANCH  39  43
ATOM     42  O   UNL     1       2.093  -3.939   0.000  0.00  0.00    +0.000 OA
ATOM     43  C   UNL     1       2.808  -3.527   0.000  0.00  0.00    +0.000 C 
ENDBRANCH  39  43
ENDBRANCH  32  41
ENDBRANCH   4  32
TORSDOF 8
