REMARK  Name = 131752175
REMARK  7 active torsions:
REMARK  status: ('A' for Active; 'I' for Inactive)
REMARK    1  A    between atoms: O_2  and  C_17
REMARK    2  A    between atoms: O_2  and  C_19
REMARK    3  A    between atoms: O_9  and  C_27
REMARK    4  A    between atoms: O_10  and  C_31
REMARK    5  A    between atoms: C_16  and  C_18
REMARK    6  A    between atoms: C_19  and  C_20
REMARK    7  A    between atoms: C_23  and  C_26
REMARK                            x       y       z     vdW  Elec       q    Type
REMARK                         _______ _______ _______ _____ _____    ______ ____
ROOT
ATOM      1  O   UNL     1       4.951   0.795   0.000  0.00  0.00    +0.000 OA
ATOM      2  C   UNL     1       5.665  -0.442   0.000  0.00  0.00    +0.000 A 
ATOM      3  C   UNL     1       5.665   0.383   0.000  0.00  0.00    +0.000 A 
ATOM      4  C   UNL     1       6.380  -0.855   0.000  0.00  0.00    +0.000 A 
ATOM      5  C   UNL     1       7.094   0.383   0.000  0.00  0.00    +0.000 A 
ATOM      6  C   UNL     1       6.380   0.795   0.000  0.00  0.00    +0.000 A 
ATOM      7  C   UNL     1       7.094  -0.442   0.000  0.00  0.00    +0.000 A 
ENDROOT
BRANCH   5  11
ATOM      8  O   UNL     1       7.809   1.621   0.000  0.00  0.00    +0.000 OA
ATOM      9  O   UNL     1       9.952   0.383   0.000  0.00  0.00    +0.000 OA
ATOM     10  O   UNL     1       9.248   4.153   0.000  0.00  0.00    +0.000 OA
ATOM     11  C   UNL     1       7.809   0.795   0.000  0.00  0.00    +0.000 A 
ATOM     12  C   UNL     1       8.523   0.383   0.000  0.00  0.00    +0.000 A 
ATOM     13  C   UNL     1       9.238   1.621   0.000  0.00  0.00    +0.000 A 
ATOM     14  C   UNL     1       8.523   2.033   0.000  0.00  0.00    +0.000 A 
ATOM     15  C   UNL     1       9.238   0.795   0.000  0.00  0.00    +0.000 A 
ATOM     16  C   UNL     1       9.988   2.039   0.000  0.00  0.00    +0.000 A 
ATOM     17  C   UNL     1       8.510   2.892   0.000  0.00  0.00    +0.000 A 
ATOM     18  C   UNL     1       9.995   2.898   0.000  0.00  0.00    +0.000 A 
ATOM     19  C   UNL     1       9.251   3.328   0.000  0.00  0.00    +0.000 A 
BRANCH  12  20
ATOM     20  O   UNL     1       8.523  -0.442   0.000  0.00  0.00    +0.000 OA
ATOM     21  C   UNL     1       9.238  -0.855   0.000  0.00  0.00    +0.000 C 
ENDBRANCH  12  20
BRANCH  16  22
ATOM     22  O   UNL     1      10.698   1.618   0.000  0.00  0.00    +0.000 OA
ATOM     23  C   UNL     1      11.417   2.022   0.000  0.00  0.00    +0.000 C 
ENDBRANCH  16  22
ENDBRANCH   5  11
BRANCH   2  24
ATOM     24  C   UNL     1       4.951  -0.855   0.000  0.00  0.00    +0.000 C 
BRANCH  24  25
ATOM     25  O   UNL     1       4.951  -1.679   0.000  0.00  0.00    +0.000 OA
BRANCH  25  34
ATOM     26  O   UNL     1       3.522  -1.679   0.000  0.00  0.00    +0.000 OA
ATOM     27  O   UNL     1       3.522  -4.154   0.000  0.00  0.00    +0.000 OA
ATOM     28  O   UNL     1       2.093  -3.329   0.000  0.00  0.00    +0.000 OA
ATOM     29  O   UNL     1       4.951  -3.329   0.000  0.00  0.00    +0.000 OA
ATOM     30  C   UNL     1       3.522  -3.329   0.000  0.00  0.00    +0.000 C 
ATOM     31  C   UNL     1       2.808  -2.917   0.000  0.00  0.00    +0.000 C 
ATOM     32  C   UNL     1       4.236  -2.917   0.000  0.00  0.00    +0.000 C 
ATOM     33  C   UNL     1       2.808  -2.092   0.000  0.00  0.00    +0.000 C 
ATOM     34  C   UNL     1       4.236  -2.092   0.000  0.00  0.00    +0.000 C 
BRANCH  33  36
ATOM     35  O   UNL     1       2.093  -0.855   0.000  0.00  0.00    +0.000 OA
ATOM     36  C   UNL     1       2.093  -1.679   0.000  0.00  0.00    +0.000 C 
ENDBRANCH  33  36
ENDBRANCH  25  34
ENDBRANCH  24  25
ENDBRANCH   2  24
TORSDOF 7
