REMARK  Name = 78161769
REMARK  6 active torsions:
REMARK  status: ('A' for Active; 'I' for Inactive)
REMARK    1  A    between atoms: O_1  and  C_14
REMARK    2  A    between atoms: O_1  and  C_17
REMARK    3  A    between atoms: O_6  and  C_22
REMARK    4  A    between atoms: O_6  and  C_26
REMARK    5  A    between atoms: C_16  and  C_24
REMARK    6  A    between atoms: C_33  and  C_35
REMARK                            x       y       z     vdW  Elec       q    Type
REMARK                         _______ _______ _______ _____ _____    ______ ____
ROOT
ATOM      1  O   UNL     1       4.547  -0.926   0.000  0.00  0.00    +0.000 OA
ATOM      2  O   UNL     1       6.691  -2.164   0.000  0.00  0.00    +0.000 OA
ATOM      3  O   UNL     1       6.691  -0.514   0.000  0.00  0.00    +0.000 OA
ATOM      4  C   UNL     1       5.262  -2.164   0.000  0.00  0.00    +0.000 C 
ATOM      5  C   UNL     1       5.976  -1.751   0.000  0.00  0.00    +0.000 C 
ATOM      6  C   UNL     1       4.547  -1.751   0.000  0.00  0.00    +0.000 C 
ATOM      7  C   UNL     1       5.976  -0.926   0.000  0.00  0.00    +0.000 C 
ATOM      8  C   UNL     1       5.262  -0.514   0.000  0.00  0.00    +0.000 C 
ENDROOT
BRANCH   6  10
ATOM      9  O   UNL     1       3.119  -1.751   0.000  0.00  0.00    +0.000 OA
ATOM     10  C   UNL     1       3.833  -2.164   0.000  0.00  0.00    +0.000 C 
ENDBRANCH   6  10
BRANCH   4  11
ATOM     11  O   UNL     1       5.262  -2.989   0.000  0.00  0.00    +0.000 OA
BRANCH  11  16
ATOM     12  O   UNL     1       3.833  -2.989   0.000  0.00  0.00    +0.000 OA
ATOM     13  O   UNL     1       5.262  -4.639   0.000  0.00  0.00    +0.000 OA
ATOM     14  O   UNL     1       3.833  -5.464   0.000  0.00  0.00    +0.000 OA
ATOM     15  O   UNL     1       2.404  -4.639   0.000  0.00  0.00    +0.000 OA
ATOM     16  C   UNL     1       4.547  -3.401   0.000  0.00  0.00    +0.000 C 
ATOM     17  C   UNL     1       4.547  -4.226   0.000  0.00  0.00    +0.000 C 
ATOM     18  C   UNL     1       3.833  -4.639   0.000  0.00  0.00    +0.000 C 
ATOM     19  C   UNL     1       3.119  -4.226   0.000  0.00  0.00    +0.000 C 
ATOM     20  C   UNL     1       3.119  -3.401   0.000  0.00  0.00    +0.000 C 
ATOM     21  C   UNL     1       2.404  -2.989   0.000  0.00  0.00    +0.000 C 
ENDBRANCH  11  16
ENDBRANCH   4  11
BRANCH   8  22
ATOM     22  O   UNL     1       5.262   0.311   0.000  0.00  0.00    +0.000 OA
BRANCH  22  26
ATOM     23  O   UNL     1       3.798   2.829   0.000  0.00  0.00    +0.000 OA
ATOM     24  O   UNL     1       2.342   0.334   0.000  0.00  0.00    +0.000 OA
ATOM     25  O   UNL     1       1.650   1.600   0.000  0.00  0.00    +0.000 OA
ATOM     26  C   UNL     1       4.547   0.724   0.000  0.00  0.00    +0.000 A 
ATOM     27  C   UNL     1       4.544   1.583   0.000  0.00  0.00    +0.000 A 
ATOM     28  C   UNL     1       3.802   0.297   0.000  0.00  0.00    +0.000 A 
ATOM     29  C   UNL     1       3.795   2.004   0.000  0.00  0.00    +0.000 A 
ATOM     30  C   UNL     1       3.062   0.735   0.000  0.00  0.00    +0.000 A 
ATOM     31  C   UNL     1       3.079   1.595   0.000  0.00  0.00    +0.000 A 
ATOM     32  C   UNL     1       2.366   2.010   0.000  0.00  0.00    +0.000 A 
ATOM     33  C   UNL     1       3.085   3.244   0.000  0.00  0.00    +0.000 A 
ATOM     34  C   UNL     1       2.369   2.835   0.000  0.00  0.00    +0.000 A 
BRANCH  33  35
ATOM     35  C   UNL     1       3.088   4.069   0.000  0.00  0.00    +0.000 A 
ATOM     36  C   UNL     1       2.376   4.485   0.000  0.00  0.00    +0.000 A 
ATOM     37  C   UNL     1       3.805   4.479   0.000  0.00  0.00    +0.000 A 
ATOM     38  C   UNL     1       2.379   5.310   0.000  0.00  0.00    +0.000 A 
ATOM     39  C   UNL     1       3.808   5.304   0.000  0.00  0.00    +0.000 A 
ATOM     40  C   UNL     1       3.095   5.719   0.000  0.00  0.00    +0.000 A 
ENDBRANCH  33  35
ENDBRANCH  22  26
ENDBRANCH   8  22
TORSDOF 6
