REMARK  Name = 74095102
REMARK  6 active torsions:
REMARK  status: ('A' for Active; 'I' for Inactive)
REMARK    1  A    between atoms: O_2  and  C_14
REMARK    2  A    between atoms: O_2  and  C_21
REMARK    3  A    between atoms: O_3  and  C_18
REMARK    4  A    between atoms: O_3  and  C_20
REMARK    5  A    between atoms: O_11  and  C_36
REMARK    6  A    between atoms: C_22  and  C_25
REMARK                            x       y       z     vdW  Elec       q    Type
REMARK                         _______ _______ _______ _____ _____    ______ ____
ROOT
ATOM      1  O   UNL     1       5.937   1.080   0.000  0.00  0.00    +0.000 OA
ATOM      2  O   UNL     1       3.793  -0.157   0.000  0.00  0.00    +0.000 OA
ATOM      3  O   UNL     1       3.047   1.078   0.000  0.00  0.00    +0.000 OA
ATOM      4  O   UNL     1       4.498   3.612   0.000  0.00  0.00    +0.000 OA
ATOM      5  C   UNL     1       5.222  -0.157   0.000  0.00  0.00    +0.000 A 
ATOM      6  C   UNL     1       5.937   0.255   0.000  0.00  0.00    +0.000 A 
ATOM      7  C   UNL     1       4.508   0.255   0.000  0.00  0.00    +0.000 A 
ATOM      8  C   UNL     1       4.508   1.080   0.000  0.00  0.00    +0.000 A 
ATOM      9  C   UNL     1       5.222   1.493   0.000  0.00  0.00    +0.000 A 
ATOM     10  C   UNL     1       3.757   1.498   0.000  0.00  0.00    +0.000 A 
ATOM     11  C   UNL     1       5.236   2.352   0.000  0.00  0.00    +0.000 A 
ATOM     12  C   UNL     1       3.751   2.358   0.000  0.00  0.00    +0.000 A 
ATOM     13  C   UNL     1       4.495   2.787   0.000  0.00  0.00    +0.000 A 
ENDROOT
BRANCH   6  16
ATOM     14  O   UNL     1       7.366  -2.220   0.000  0.00  0.00    +0.000 OA
ATOM     15  O   UNL     1       8.795   0.255   0.000  0.00  0.00    +0.000 OA
ATOM     16  C   UNL     1       6.651  -0.157   0.000  0.00  0.00    +0.000 A 
ATOM     17  C   UNL     1       7.366   0.255   0.000  0.00  0.00    +0.000 A 
ATOM     18  C   UNL     1       6.651  -0.982   0.000  0.00  0.00    +0.000 A 
ATOM     19  C   UNL     1       7.366  -1.395   0.000  0.00  0.00    +0.000 A 
ATOM     20  C   UNL     1       8.080  -0.157   0.000  0.00  0.00    +0.000 A 
ATOM     21  C   UNL     1       8.080  -0.982   0.000  0.00  0.00    +0.000 A 
BRANCH  21  22
ATOM     22  O   UNL     1       8.795  -1.395   0.000  0.00  0.00    +0.000 OA
ATOM     23  C   UNL     1       9.509  -0.982   0.000  0.00  0.00    +0.000 C 
ENDBRANCH  21  22
ENDBRANCH   6  16
BRANCH   5  24
ATOM     24  O   UNL     1       5.222  -0.982   0.000  0.00  0.00    +0.000 OA
BRANCH  24  32
ATOM     25  O   UNL     1       3.793  -0.982   0.000  0.00  0.00    +0.000 OA
ATOM     26  O   UNL     1       3.793  -3.457   0.000  0.00  0.00    +0.000 OA
ATOM     27  O   UNL     1       5.222  -2.632   0.000  0.00  0.00    +0.000 OA
ATOM     28  C   UNL     1       3.079  -2.220   0.000  0.00  0.00    +0.000 C 
ATOM     29  C   UNL     1       3.793  -2.632   0.000  0.00  0.00    +0.000 C 
ATOM     30  C   UNL     1       4.508  -2.220   0.000  0.00  0.00    +0.000 C 
ATOM     31  C   UNL     1       3.079  -1.395   0.000  0.00  0.00    +0.000 C 
ATOM     32  C   UNL     1       4.508  -1.395   0.000  0.00  0.00    +0.000 C 
ATOM     33  C   UNL     1       2.365  -0.982   0.000  0.00  0.00    +0.000 C 
BRANCH  28  34
ATOM     34  O   UNL     1       2.365  -2.632   0.000  0.00  0.00    +0.000 OA
BRANCH  34  36
ATOM     35  O   UNL     1       3.079  -3.870   0.000  0.00  0.00    +0.000 OA
ATOM     36  C   UNL     1       2.365  -3.457   0.000  0.00  0.00    +0.000 C 
ATOM     37  C   UNL     1       1.650  -3.870   0.000  0.00  0.00    +0.000 C 
ENDBRANCH  34  36
ENDBRANCH  28  34
ENDBRANCH  24  32
ENDBRANCH   5  24
TORSDOF 6
