REMARK  Name = 131752327
REMARK  14 active torsions:
REMARK  status: ('A' for Active; 'I' for Inactive)
REMARK    1  A    between atoms: O_1  and  C_26
REMARK    2  A    between atoms: O_1  and  C_33
REMARK    3  A    between atoms: O_2  and  C_28
REMARK    4  A    between atoms: O_2  and  C_30
REMARK    5  A    between atoms: O_5  and  C_27
REMARK    6  A    between atoms: O_5  and  C_44
REMARK    7  A    between atoms: O_9  and  C_35
REMARK    8  A    between atoms: O_9  and  C_45
REMARK    9  A    between atoms: C_31  and  C_41
REMARK   10  A    between atoms: C_39  and  C_42
REMARK   11  A    between atoms: C_40  and  C_43
REMARK   12  A    between atoms: C_44  and  C_46
REMARK   13  A    between atoms: C_52  and  C_54
REMARK   14  A    between atoms: C_55  and  C_59
REMARK                            x       y       z     vdW  Elec       q    Type
REMARK                         _______ _______ _______ _____ _____    ______ ____
ROOT
ATOM      1  O   UNL     1       4.951  -1.798   0.000  0.00  0.00    +0.000 OA
ATOM      2  O   UNL     1       5.665  -3.861   0.000  0.00  0.00    +0.000 OA
ATOM      3  C   UNL     1       6.380  -2.623   0.000  0.00  0.00    +0.000 C 
ATOM      4  C   UNL     1       6.380  -1.798   0.000  0.00  0.00    +0.000 C 
ATOM      5  C   UNL     1       5.665  -1.386   0.000  0.00  0.00    +0.000 C 
ATOM      6  C   UNL     1       5.665  -3.036   0.000  0.00  0.00    +0.000 C 
ATOM      7  C   UNL     1       4.951  -2.623   0.000  0.00  0.00    +0.000 C 
ENDROOT
BRANCH   7  10
ATOM      8  O   UNL     1       4.236  -3.861   0.000  0.00  0.00    +0.000 OA
ATOM      9  O   UNL     1       3.522  -2.623   0.000  0.00  0.00    +0.000 OA
ATOM     10  C   UNL     1       4.236  -3.036   0.000  0.00  0.00    +0.000 C 
ENDBRANCH   7  10
BRANCH   3  11
ATOM     11  O   UNL     1       7.094  -3.036   0.000  0.00  0.00    +0.000 OA
BRANCH  11  16
ATOM     12  O   UNL     1       6.380  -4.273   0.000  0.00  0.00    +0.000 OA
ATOM     13  O   UNL     1       8.523  -3.861   0.000  0.00  0.00    +0.000 OA
ATOM     14  O   UNL     1       8.523  -5.511   0.000  0.00  0.00    +0.000 OA
ATOM     15  O   UNL     1       7.094  -6.336   0.000  0.00  0.00    +0.000 OA
ATOM     16  C   UNL     1       7.094  -3.861   0.000  0.00  0.00    +0.000 C 
ATOM     17  C   UNL     1       7.809  -4.273   0.000  0.00  0.00    +0.000 C 
ATOM     18  C   UNL     1       7.809  -5.098   0.000  0.00  0.00    +0.000 C 
ATOM     19  C   UNL     1       7.094  -5.511   0.000  0.00  0.00    +0.000 C 
ATOM     20  C   UNL     1       6.380  -5.098   0.000  0.00  0.00    +0.000 C 
BRANCH  20  23
ATOM     21  O   UNL     1       4.951  -5.098   0.000  0.00  0.00    +0.000 OA
ATOM     22  O   UNL     1       5.665  -6.336   0.000  0.00  0.00    +0.000 OA
ATOM     23  C   UNL     1       5.665  -5.511   0.000  0.00  0.00    +0.000 C 
ENDBRANCH  20  23
ENDBRANCH  11  16
ENDBRANCH   3  11
BRANCH   5  24
ATOM     24  O   UNL     1       5.665  -0.561   0.000  0.00  0.00    +0.000 OA
BRANCH  24  28
ATOM     25  O   UNL     1       4.236   1.089   0.000  0.00  0.00    +0.000 OA
ATOM     26  O   UNL     1       4.236  -1.386   0.000  0.00  0.00    +0.000 OA
ATOM     27  O   UNL     1       2.808  -0.561   0.000  0.00  0.00    +0.000 OA
ATOM     28  C   UNL     1       4.951  -0.148   0.000  0.00  0.00    +0.000 C 
ATOM     29  C   UNL     1       4.236  -0.561   0.000  0.00  0.00    +0.000 C 
ATOM     30  C   UNL     1       4.951   0.677   0.000  0.00  0.00    +0.000 C 
ATOM     31  C   UNL     1       3.522  -0.148   0.000  0.00  0.00    +0.000 C 
ATOM     32  C   UNL     1       3.522   0.677   0.000  0.00  0.00    +0.000 C 
BRANCH  32  35
ATOM     33  O   UNL     1       2.093   0.677   0.000  0.00  0.00    +0.000 OA
ATOM     34  O   UNL     1       2.808   1.914   0.000  0.00  0.00    +0.000 OA
ATOM     35  C   UNL     1       2.808   1.089   0.000  0.00  0.00    +0.000 C 
ENDBRANCH  32  35
BRANCH  30  36
ATOM     36  O   UNL     1       5.665   1.089   0.000  0.00  0.00    +0.000 OA
BRANCH  36  40
ATOM     37  O   UNL     1       7.114   3.616   0.000  0.00  0.00    +0.000 OA
ATOM     38  O   UNL     1       4.225   3.630   0.000  0.00  0.00    +0.000 OA
ATOM     39  O   UNL     1       4.975   4.862   0.000  0.00  0.00    +0.000 OA
ATOM     40  C   UNL     1       5.665   1.914   0.000  0.00  0.00    +0.000 A 
ATOM     41  C   UNL     1       6.408   2.347   0.000  0.00  0.00    +0.000 A 
ATOM     42  C   UNL     1       4.923   2.347   0.000  0.00  0.00    +0.000 A 
ATOM     43  C   UNL     1       6.398   3.206   0.000  0.00  0.00    +0.000 A 
ATOM     44  C   UNL     1       4.933   3.206   0.000  0.00  0.00    +0.000 A 
ATOM     45  C   UNL     1       5.685   3.621   0.000  0.00  0.00    +0.000 A 
ATOM     46  C   UNL     1       5.688   4.446   0.000  0.00  0.00    +0.000 A 
ATOM     47  C   UNL     1       7.117   4.441   0.000  0.00  0.00    +0.000 A 
ATOM     48  C   UNL     1       6.404   4.856   0.000  0.00  0.00    +0.000 A 
BRANCH  47  50
ATOM     49  O   UNL     1       9.981   6.080   0.000  0.00  0.00    +0.000 OA
ATOM     50  C   UNL     1       7.833   4.851   0.000  0.00  0.00    +0.000 A 
ATOM     51  C   UNL     1       7.836   5.676   0.000  0.00  0.00    +0.000 A 
ATOM     52  C   UNL     1       8.546   4.435   0.000  0.00  0.00    +0.000 A 
ATOM     53  C   UNL     1       8.552   6.085   0.000  0.00  0.00    +0.000 A 
ATOM     54  C   UNL     1       9.262   4.845   0.000  0.00  0.00    +0.000 A 
ATOM     55  C   UNL     1       9.265   5.670   0.000  0.00  0.00    +0.000 A 
ENDBRANCH  47  50
ENDBRANCH  36  40
ENDBRANCH  30  36
ENDBRANCH  24  28
ENDBRANCH   5  24
BRANCH   4  56
ATOM     56  O   UNL     1       7.094  -1.386   0.000  0.00  0.00    +0.000 OA
BRANCH  56  58
ATOM     57  O   UNL     1       6.380  -0.148   0.000  0.00  0.00    +0.000 OA
ATOM     58  C   UNL     1       7.094  -0.561   0.000  0.00  0.00    +0.000 C 
BRANCH  58  59
ATOM     59  C   UNL     1       7.809  -0.148   0.000  0.00  0.00    +0.000 C 
ATOM     60  C   UNL     1       7.809   0.677   0.000  0.00  0.00    +0.000 C 
BRANCH  60  62
ATOM     61  O   UNL     1      10.667   2.327   0.000  0.00  0.00    +0.000 OA
ATOM     62  C   UNL     1       8.523   1.089   0.000  0.00  0.00    +0.000 A 
ATOM     63  C   UNL     1       9.238   0.677   0.000  0.00  0.00    +0.000 A 
ATOM     64  C   UNL     1       8.523   1.914   0.000  0.00  0.00    +0.000 A 
ATOM     65  C   UNL     1       9.952   1.089   0.000  0.00  0.00    +0.000 A 
ATOM     66  C   UNL     1       9.238   2.327   0.000  0.00  0.00    +0.000 A 
ATOM     67  C   UNL     1       9.952   1.914   0.000  0.00  0.00    +0.000 A 
ENDBRANCH  60  62
ENDBRANCH  58  59
ENDBRANCH  56  58
ENDBRANCH   4  56
TORSDOF 14
