REMARK  Name = 74977556
REMARK  8 active torsions:
REMARK  status: ('A' for Active; 'I' for Inactive)
REMARK    1  A    between atoms: O_3  and  C_19
REMARK    2  A    between atoms: O_3  and  C_23
REMARK    3  A    between atoms: O_8  and  C_24
REMARK    4  A    between atoms: O_8  and  C_26
REMARK    5  A    between atoms: O_14  and  C_40
REMARK    6  A    between atoms: C_15  and  C_25
REMARK    7  A    between atoms: C_16  and  C_23
REMARK    8  A    between atoms: C_33  and  C_35
REMARK                            x       y       z     vdW  Elec       q    Type
REMARK                         _______ _______ _______ _____ _____    ______ ____
ROOT
ATOM      1  O   UNL     1       8.400  -1.542   0.000  0.00  0.00    +0.000 OA
ENDROOT
BRANCH   1   5
ATOM      2  O   UNL     1       9.849   0.984   0.000  0.00  0.00    +0.000 OA
ATOM      3  O   UNL     1       6.959   0.998   0.000  0.00  0.00    +0.000 OA
ATOM      4  O   UNL     1       7.710   2.230   0.000  0.00  0.00    +0.000 OA
ATOM      5  C   UNL     1       8.400  -0.717   0.000  0.00  0.00    +0.000 A 
ATOM      6  C   UNL     1       9.143  -0.285   0.000  0.00  0.00    +0.000 A 
ATOM      7  C   UNL     1       7.657  -0.285   0.000  0.00  0.00    +0.000 A 
ATOM      8  C   UNL     1       9.133   0.574   0.000  0.00  0.00    +0.000 A 
ATOM      9  C   UNL     1       7.667   0.574   0.000  0.00  0.00    +0.000 A 
ATOM     10  C   UNL     1       8.420   0.990   0.000  0.00  0.00    +0.000 A 
ATOM     11  C   UNL     1       8.423   1.815   0.000  0.00  0.00    +0.000 A 
ATOM     12  C   UNL     1       9.852   1.809   0.000  0.00  0.00    +0.000 A 
ATOM     13  C   UNL     1       9.139   2.224   0.000  0.00  0.00    +0.000 A 
BRANCH  12  14
ATOM     14  C   UNL     1      10.568   2.219   0.000  0.00  0.00    +0.000 A 
ATOM     15  C   UNL     1      10.571   3.044   0.000  0.00  0.00    +0.000 A 
ATOM     16  C   UNL     1      11.281   1.804   0.000  0.00  0.00    +0.000 A 
ATOM     17  C   UNL     1      11.287   3.454   0.000  0.00  0.00    +0.000 A 
ATOM     18  C   UNL     1      11.997   2.213   0.000  0.00  0.00    +0.000 A 
ATOM     19  C   UNL     1      12.000   3.038   0.000  0.00  0.00    +0.000 A 
BRANCH  19  20
ATOM     20  O   UNL     1      12.716   3.448   0.000  0.00  0.00    +0.000 OA
ATOM     21  C   UNL     1      12.719   4.273   0.000  0.00  0.00    +0.000 C 
ENDBRANCH  19  20
ENDBRANCH  12  14
ENDBRANCH   1   5
BRANCH   1  30
ATOM     22  O   UNL     1       6.971  -1.542   0.000  0.00  0.00    +0.000 OA
ATOM     23  O   UNL     1       5.542  -3.192   0.000  0.00  0.00    +0.000 OA
ATOM     24  O   UNL     1       6.971  -4.017   0.000  0.00  0.00    +0.000 OA
ATOM     25  O   UNL     1       8.400  -3.192   0.000  0.00  0.00    +0.000 OA
ATOM     26  C   UNL     1       6.256  -1.955   0.000  0.00  0.00    +0.000 C 
ATOM     27  C   UNL     1       6.256  -2.780   0.000  0.00  0.00    +0.000 C 
ATOM     28  C   UNL     1       6.971  -3.192   0.000  0.00  0.00    +0.000 C 
ATOM     29  C   UNL     1       7.686  -2.780   0.000  0.00  0.00    +0.000 C 
ATOM     30  C   UNL     1       7.686  -1.955   0.000  0.00  0.00    +0.000 C 
BRANCH  26  31
ATOM     31  C   UNL     1       5.542  -1.542   0.000  0.00  0.00    +0.000 C 
BRANCH  31  32
ATOM     32  O   UNL     1       4.828  -1.955   0.000  0.00  0.00    +0.000 OA
BRANCH  32  38
ATOM     33  O   UNL     1       4.027  -0.722   0.000  0.00  0.00    +0.000 OA
ATOM     34  O   UNL     1       2.194  -1.817   0.000  0.00  0.00    +0.000 OA
ATOM     35  O   UNL     1       3.188  -2.685   0.000  0.00  0.00    +0.000 OA
ATOM     36  C   UNL     1       2.808  -1.265   0.000  0.00  0.00    +0.000 C 
ATOM     37  C   UNL     1       3.360  -1.878   0.000  0.00  0.00    +0.000 C 
ATOM     38  C   UNL     1       4.113  -1.542   0.000  0.00  0.00    +0.000 C 
ATOM     39  C   UNL     1       3.220  -0.550   0.000  0.00  0.00    +0.000 C 
BRANCH  36  41
ATOM     40  O   UNL     1       2.093  -0.027   0.000  0.00  0.00    +0.000 OA
ATOM     41  C   UNL     1       2.093  -0.852   0.000  0.00  0.00    +0.000 C 
ENDBRANCH  36  41
ENDBRANCH  32  38
ENDBRANCH  31  32
ENDBRANCH  26  31
ENDBRANCH   1  30
TORSDOF 8
