REMARK  Name = 14375131
REMARK  10 active torsions:
REMARK  status: ('A' for Active; 'I' for Inactive)
REMARK    1  A    between atoms: O_2  and  C_19
REMARK    2  A    between atoms: O_2  and  C_21
REMARK    3  A    between atoms: O_9  and  C_27
REMARK    4  A    between atoms: O_10  and  C_28
REMARK    5  A    between atoms: O_11  and  C_29
REMARK    6  A    between atoms: O_12  and  C_30
REMARK    7  A    between atoms: O_13  and  C_33
REMARK    8  A    between atoms: O_14  and  C_35
REMARK    9  A    between atoms: C_18  and  C_20
REMARK   10  A    between atoms: C_22  and  C_26
REMARK                            x       y       z     vdW  Elec       q    Type
REMARK                         _______ _______ _______ _____ _____    ______ ____
ROOT
ATOM      1  O   UNL     1       6.380   0.923   0.000  0.00  0.00    +0.000 OA
ATOM      2  O   UNL     1       4.236  -0.315   0.000  0.00  0.00    +0.000 OA
ATOM      3  C   UNL     1       5.665  -0.315   0.000  0.00  0.00    +0.000 A 
ATOM      4  C   UNL     1       6.380   0.098   0.000  0.00  0.00    +0.000 A 
ATOM      5  C   UNL     1       4.951   0.098   0.000  0.00  0.00    +0.000 A 
ATOM      6  C   UNL     1       4.951   0.923   0.000  0.00  0.00    +0.000 A 
ATOM      7  C   UNL     1       5.665   1.335   0.000  0.00  0.00    +0.000 A 
ATOM      8  C   UNL     1       4.200   1.341   0.000  0.00  0.00    +0.000 A 
ATOM      9  C   UNL     1       5.679   2.195   0.000  0.00  0.00    +0.000 A 
ATOM     10  C   UNL     1       4.194   2.200   0.000  0.00  0.00    +0.000 A 
ATOM     11  C   UNL     1       4.938   2.630   0.000  0.00  0.00    +0.000 A 
ENDROOT
BRANCH   4  12
ATOM     12  C   UNL     1       7.094  -0.315   0.000  0.00  0.00    +0.000 A 
ATOM     13  C   UNL     1       7.809   0.098   0.000  0.00  0.00    +0.000 A 
ATOM     14  C   UNL     1       7.094  -1.140   0.000  0.00  0.00    +0.000 A 
ATOM     15  C   UNL     1       8.523  -0.315   0.000  0.00  0.00    +0.000 A 
ATOM     16  C   UNL     1       7.809  -1.552   0.000  0.00  0.00    +0.000 A 
ATOM     17  C   UNL     1       8.523  -1.140   0.000  0.00  0.00    +0.000 A 
BRANCH  15  18
ATOM     18  O   UNL     1       9.238   0.098   0.000  0.00  0.00    +0.000 OA
ATOM     19  C   UNL     1       9.238   0.923   0.000  0.00  0.00    +0.000 C 
ENDBRANCH  15  18
BRANCH  17  20
ATOM     20  O   UNL     1       9.238  -1.552   0.000  0.00  0.00    +0.000 OA
ATOM     21  C   UNL     1       9.238  -2.377   0.000  0.00  0.00    +0.000 C 
ENDBRANCH  17  20
ENDBRANCH   4  12
BRANCH   8  22
ATOM     22  O   UNL     1       3.490   0.920   0.000  0.00  0.00    +0.000 OA
ATOM     23  C   UNL     1       2.771   1.325   0.000  0.00  0.00    +0.000 C 
ENDBRANCH   8  22
BRANCH   9  24
ATOM     24  O   UNL     1       6.398   2.599   0.000  0.00  0.00    +0.000 OA
ATOM     25  C   UNL     1       6.407   3.424   0.000  0.00  0.00    +0.000 C 
ENDBRANCH   9  24
BRANCH  10  26
ATOM     26  O   UNL     1       3.478   2.610   0.000  0.00  0.00    +0.000 OA
ATOM     27  C   UNL     1       3.474   3.435   0.000  0.00  0.00    +0.000 C 
ENDBRANCH  10  26
BRANCH  11  28
ATOM     28  O   UNL     1       4.941   3.455   0.000  0.00  0.00    +0.000 OA
ATOM     29  C   UNL     1       4.228   3.870   0.000  0.00  0.00    +0.000 C 
ENDBRANCH  11  28
BRANCH   3  30
ATOM     30  O   UNL     1       5.665  -1.140   0.000  0.00  0.00    +0.000 OA
BRANCH  30  39
ATOM     31  O   UNL     1       4.236  -1.140   0.000  0.00  0.00    +0.000 OA
ATOM     32  O   UNL     1       4.236  -3.615   0.000  0.00  0.00    +0.000 OA
ATOM     33  O   UNL     1       2.808  -2.790   0.000  0.00  0.00    +0.000 OA
ATOM     34  O   UNL     1       5.665  -2.790   0.000  0.00  0.00    +0.000 OA
ATOM     35  C   UNL     1       4.236  -2.790   0.000  0.00  0.00    +0.000 C 
ATOM     36  C   UNL     1       3.522  -2.377   0.000  0.00  0.00    +0.000 C 
ATOM     37  C   UNL     1       4.951  -2.377   0.000  0.00  0.00    +0.000 C 
ATOM     38  C   UNL     1       3.522  -1.552   0.000  0.00  0.00    +0.000 C 
ATOM     39  C   UNL     1       4.951  -1.552   0.000  0.00  0.00    +0.000 C 
BRANCH  38  41
ATOM     40  O   UNL     1       2.093  -1.552   0.000  0.00  0.00    +0.000 OA
ATOM     41  C   UNL     1       2.808  -1.140   0.000  0.00  0.00    +0.000 C 
ENDBRANCH  38  41
ENDBRANCH  30  39
ENDBRANCH   3  30
TORSDOF 10
