REMARK  Name = 194566
REMARK  4 active torsions:
REMARK  status: ('A' for Active; 'I' for Inactive)
REMARK    1  A    between atoms: O_1  and  C_14
REMARK    2  A    between atoms: O_1  and  C_15
REMARK    3  A    between atoms: C_18  and  C_24
REMARK    4  A    between atoms: C_34  and  C_35
REMARK                            x       y       z     vdW  Elec       q    Type
REMARK                         _______ _______ _______ _____ _____    ______ ____
ROOT
ATOM      1  O   UNL     1       5.665   1.778   0.000  0.00  0.00    +0.000 OA
ATOM      2  O   UNL     1       3.522   0.540   0.000  0.00  0.00    +0.000 OA
ATOM      3  O   UNL     1       3.522   2.190   0.000  0.00  0.00    +0.000 OA
ATOM      4  C   UNL     1       4.951   0.540   0.000  0.00  0.00    +0.000 C 
ATOM      5  C   UNL     1       5.665   0.953   0.000  0.00  0.00    +0.000 C 
ATOM      6  C   UNL     1       4.236   0.953   0.000  0.00  0.00    +0.000 C 
ATOM      7  C   UNL     1       4.951   2.190   0.000  0.00  0.00    +0.000 C 
ATOM      8  C   UNL     1       4.236   1.778   0.000  0.00  0.00    +0.000 C 
ATOM      9  C   UNL     1       4.951   3.015   0.000  0.00  0.00    +0.000 C 
ENDROOT
BRANCH   5  14
ATOM     10  O   UNL     1       7.094   1.778   0.000  0.00  0.00    +0.000 OA
ATOM     11  O   UNL     1       5.665  -0.697   0.000  0.00  0.00    +0.000 OA
ATOM     12  O   UNL     1       8.546  -0.726   0.000  0.00  0.00    +0.000 OA
ATOM     13  O   UNL     1       8.537   1.806   0.000  0.00  0.00    +0.000 OA
ATOM     14  C   UNL     1       6.380   0.540   0.000  0.00  0.00    +0.000 A 
ATOM     15  C   UNL     1       7.094   0.953   0.000  0.00  0.00    +0.000 A 
ATOM     16  C   UNL     1       6.380  -0.285   0.000  0.00  0.00    +0.000 A 
ATOM     17  C   UNL     1       7.809   0.540   0.000  0.00  0.00    +0.000 A 
ATOM     18  C   UNL     1       7.094  -0.697   0.000  0.00  0.00    +0.000 A 
ATOM     19  C   UNL     1       7.809  -0.285   0.000  0.00  0.00    +0.000 A 
ATOM     20  C   UNL     1       8.546   0.982   0.000  0.00  0.00    +0.000 A 
ATOM     21  C   UNL     1       9.294   0.557   0.000  0.00  0.00    +0.000 A 
ATOM     22  C   UNL     1       9.294  -0.302   0.000  0.00  0.00    +0.000 A 
BRANCH  22  24
ATOM     23  O   UNL     1      12.145  -1.963   0.000  0.00  0.00    +0.000 OA
ATOM     24  C   UNL     1      10.007  -0.717   0.000  0.00  0.00    +0.000 A 
ATOM     25  C   UNL     1      10.004  -1.542   0.000  0.00  0.00    +0.000 A 
ATOM     26  C   UNL     1      10.723  -0.307   0.000  0.00  0.00    +0.000 A 
ATOM     27  C   UNL     1      10.716  -1.957   0.000  0.00  0.00    +0.000 A 
ATOM     28  C   UNL     1      11.436  -0.723   0.000  0.00  0.00    +0.000 A 
ATOM     29  C   UNL     1      11.432  -1.548   0.000  0.00  0.00    +0.000 A 
ENDBRANCH  22  24
ENDBRANCH   5  14
BRANCH   4  30
ATOM     30  O   UNL     1       4.951  -0.285   0.000  0.00  0.00    +0.000 OA
BRANCH  30  35
ATOM     31  O   UNL     1       3.522  -0.285   0.000  0.00  0.00    +0.000 OA
ATOM     32  O   UNL     1       4.951  -1.935   0.000  0.00  0.00    +0.000 OA
ATOM     33  O   UNL     1       3.522  -2.760   0.000  0.00  0.00    +0.000 OA
ATOM     34  O   UNL     1       2.093  -1.935   0.000  0.00  0.00    +0.000 OA
ATOM     35  C   UNL     1       4.236  -0.697   0.000  0.00  0.00    +0.000 C 
ATOM     36  C   UNL     1       4.236  -1.522   0.000  0.00  0.00    +0.000 C 
ATOM     37  C   UNL     1       3.522  -1.935   0.000  0.00  0.00    +0.000 C 
ATOM     38  C   UNL     1       2.808  -1.522   0.000  0.00  0.00    +0.000 C 
ATOM     39  C   UNL     1       2.808  -0.697   0.000  0.00  0.00    +0.000 C 
ATOM     40  C   UNL     1       2.093  -0.285   0.000  0.00  0.00    +0.000 C 
ENDBRANCH  30  35
ENDBRANCH   4  30
TORSDOF 4
