REMARK  Name = 46869260
REMARK  7 active torsions:
REMARK  status: ('A' for Active; 'I' for Inactive)
REMARK    1  A    between atoms: O_3  and  C_23
REMARK    2  A    between atoms: O_3  and  C_28
REMARK    3  A    between atoms: O_4  and  C_24
REMARK    4  A    between atoms: O_4  and  C_29
REMARK    5  A    between atoms: C_20  and  C_25
REMARK    6  A    between atoms: C_22  and  C_26
REMARK    7  A    between atoms: C_27  and  C_31
REMARK                            x       y       z     vdW  Elec       q    Type
REMARK                         _______ _______ _______ _____ _____    ______ ____
ROOT
ATOM      1  O   UNL     1       7.114  -0.385   0.000  0.00  0.00    +0.000 OA
ATOM      2  O   UNL     1       4.975   0.861   0.000  0.00  0.00    +0.000 OA
ATOM      3  C   UNL     1       7.117   0.440   0.000  0.00  0.00    +0.000 C 
ATOM      4  C   UNL     1       5.665  -2.086   0.000  0.00  0.00    +0.000 A 
ATOM      5  C   UNL     1       6.404   0.855   0.000  0.00  0.00    +0.000 C 
ATOM      6  C   UNL     1       6.398  -0.795   0.000  0.00  0.00    +0.000 A 
ATOM      7  C   UNL     1       5.685  -0.379   0.000  0.00  0.00    +0.000 A 
ATOM      8  C   UNL     1       6.408  -1.654   0.000  0.00  0.00    +0.000 A 
ATOM      9  C   UNL     1       5.688   0.446   0.000  0.00  0.00    +0.000 C 
ATOM     10  C   UNL     1       4.923  -1.654   0.000  0.00  0.00    +0.000 A 
ATOM     11  C   UNL     1       4.933  -0.795   0.000  0.00  0.00    +0.000 A 
ENDROOT
BRANCH   3  13
ATOM     12  C   UNL     1       9.265   1.669   0.000  0.00  0.00    +0.000 A 
ATOM     13  C   UNL     1       7.833   0.850   0.000  0.00  0.00    +0.000 A 
ATOM     14  C   UNL     1       8.552   2.085   0.000  0.00  0.00    +0.000 A 
ATOM     15  C   UNL     1       9.262   0.845   0.000  0.00  0.00    +0.000 A 
ATOM     16  C   UNL     1       7.836   1.675   0.000  0.00  0.00    +0.000 A 
ATOM     17  C   UNL     1       8.546   0.435   0.000  0.00  0.00    +0.000 A 
BRANCH  12  18
ATOM     18  O   UNL     1       9.981   2.079   0.000  0.00  0.00    +0.000 OA
BRANCH  18  27
ATOM     19  O   UNL     1       9.272   3.319   0.000  0.00  0.00    +0.000 OA
ATOM     20  O   UNL     1      11.420   4.549   0.000  0.00  0.00    +0.000 OA
ATOM     21  O   UNL     1       9.994   5.379   0.000  0.00  0.00    +0.000 OA
ATOM     22  O   UNL     1      11.414   2.899   0.000  0.00  0.00    +0.000 OA
ATOM     23  C   UNL     1      10.704   4.139   0.000  0.00  0.00    +0.000 C 
ATOM     24  C   UNL     1       9.991   4.554   0.000  0.00  0.00    +0.000 C 
ATOM     25  C   UNL     1      10.701   3.314   0.000  0.00  0.00    +0.000 C 
ATOM     26  C   UNL     1       9.275   4.144   0.000  0.00  0.00    +0.000 C 
ATOM     27  C   UNL     1       9.985   2.904   0.000  0.00  0.00    +0.000 C 
BRANCH  26  29
ATOM     28  O   UNL     1       8.565   5.385   0.000  0.00  0.00    +0.000 OA
ATOM     29  C   UNL     1       8.562   4.560   0.000  0.00  0.00    +0.000 C 
ENDBRANCH  26  29
ENDBRANCH  18  27
ENDBRANCH  12  18
ENDBRANCH   3  13
BRANCH   4  30
ATOM     30  O   UNL     1       5.665  -2.911   0.000  0.00  0.00    +0.000 OA
BRANCH  30  39
ATOM     31  O   UNL     1       4.236  -2.911   0.000  0.00  0.00    +0.000 OA
ATOM     32  O   UNL     1       4.236  -5.386   0.000  0.00  0.00    +0.000 OA
ATOM     33  O   UNL     1       2.808  -4.561   0.000  0.00  0.00    +0.000 OA
ATOM     34  O   UNL     1       5.665  -4.561   0.000  0.00  0.00    +0.000 OA
ATOM     35  C   UNL     1       4.236  -4.561   0.000  0.00  0.00    +0.000 C 
ATOM     36  C   UNL     1       3.522  -4.149   0.000  0.00  0.00    +0.000 C 
ATOM     37  C   UNL     1       4.951  -4.149   0.000  0.00  0.00    +0.000 C 
ATOM     38  C   UNL     1       3.522  -3.324   0.000  0.00  0.00    +0.000 C 
ATOM     39  C   UNL     1       4.951  -3.324   0.000  0.00  0.00    +0.000 C 
BRANCH  38  41
ATOM     40  O   UNL     1       2.093  -3.324   0.000  0.00  0.00    +0.000 OA
ATOM     41  C   UNL     1       2.808  -2.911   0.000  0.00  0.00    +0.000 C 
ENDBRANCH  38  41
ENDBRANCH  30  39
ENDBRANCH   4  30
TORSDOF 7
