REMARK  Name = 76594575
REMARK  3 active torsions:
REMARK  status: ('A' for Active; 'I' for Inactive)
REMARK    1  A    between atoms: O_2  and  C_17
REMARK    2  A    between atoms: O_2  and  C_19
REMARK    3  A    between atoms: C_26  and  C_28
REMARK                            x       y       z     vdW  Elec       q    Type
REMARK                         _______ _______ _______ _____ _____    ______ ____
ROOT
ATOM      1  O   UNL     1       6.399   0.854   0.000  0.00  0.00    +0.000 OA
ATOM      2  O   UNL     1       3.510   0.868   0.000  0.00  0.00    +0.000 OA
ATOM      3  O   UNL     1       5.693   2.920   0.000  0.00  0.00    +0.000 OA
ATOM      4  O   UNL     1       4.261   2.100   0.000  0.00  0.00    +0.000 OA
ATOM      5  C   UNL     1       4.951  -0.847   0.000  0.00  0.00    +0.000 A 
ATOM      6  C   UNL     1       5.693  -0.415   0.000  0.00  0.00    +0.000 A 
ATOM      7  C   UNL     1       4.208  -0.415   0.000  0.00  0.00    +0.000 A 
ATOM      8  C   UNL     1       5.684   0.445   0.000  0.00  0.00    +0.000 A 
ATOM      9  C   UNL     1       4.971   0.860   0.000  0.00  0.00    +0.000 A 
ATOM     10  C   UNL     1       4.218   0.445   0.000  0.00  0.00    +0.000 A 
ATOM     11  C   UNL     1       4.974   1.685   0.000  0.00  0.00    +0.000 A 
ATOM     12  C   UNL     1       6.403   1.679   0.000  0.00  0.00    +0.000 A 
ATOM     13  C   UNL     1       5.690   2.095   0.000  0.00  0.00    +0.000 A 
ENDROOT
BRANCH  12  17
ATOM     14  O   UNL     1       7.841   4.149   0.000  0.00  0.00    +0.000 OA
ATOM     15  O   UNL     1       9.261   1.668   0.000  0.00  0.00    +0.000 OA
ATOM     16  O   UNL     1       9.267   3.318   0.000  0.00  0.00    +0.000 OA
ATOM     17  C   UNL     1       7.119   2.089   0.000  0.00  0.00    +0.000 A 
ATOM     18  C   UNL     1       7.832   1.674   0.000  0.00  0.00    +0.000 A 
ATOM     19  C   UNL     1       7.122   2.914   0.000  0.00  0.00    +0.000 A 
ATOM     20  C   UNL     1       7.838   3.324   0.000  0.00  0.00    +0.000 A 
ATOM     21  C   UNL     1       8.548   2.084   0.000  0.00  0.00    +0.000 A 
ATOM     22  C   UNL     1       8.551   2.909   0.000  0.00  0.00    +0.000 A 
ENDBRANCH  12  17
BRANCH   5  23
ATOM     23  O   UNL     1       4.951  -1.672   0.000  0.00  0.00    +0.000 OA
BRANCH  23  32
ATOM     24  O   UNL     1       3.522  -1.672   0.000  0.00  0.00    +0.000 OA
ATOM     25  O   UNL     1       3.522  -4.147   0.000  0.00  0.00    +0.000 OA
ATOM     26  O   UNL     1       2.093  -3.322   0.000  0.00  0.00    +0.000 OA
ATOM     27  O   UNL     1       4.951  -3.322   0.000  0.00  0.00    +0.000 OA
ATOM     28  C   UNL     1       3.522  -3.322   0.000  0.00  0.00    +0.000 C 
ATOM     29  C   UNL     1       2.808  -2.910   0.000  0.00  0.00    +0.000 C 
ATOM     30  C   UNL     1       4.236  -2.910   0.000  0.00  0.00    +0.000 C 
ATOM     31  C   UNL     1       2.808  -2.085   0.000  0.00  0.00    +0.000 C 
ATOM     32  C   UNL     1       4.236  -2.085   0.000  0.00  0.00    +0.000 C 
ATOM     33  C   UNL     1       2.093  -1.672   0.000  0.00  0.00    +0.000 C 
ENDBRANCH  23  32
ENDBRANCH   5  23
TORSDOF 3
