REMARK  Name = 122360680
REMARK  8 active torsions:
REMARK  status: ('A' for Active; 'I' for Inactive)
REMARK    1  A    between atoms: O_3  and  C_17
REMARK    2  A    between atoms: O_3  and  C_19
REMARK    3  A    between atoms: O_6  and  C_18
REMARK    4  A    between atoms: O_6  and  C_22
REMARK    5  A    between atoms: C_15  and  C_18
REMARK    6  A    between atoms: C_22  and  C_26
REMARK    7  A    between atoms: C_26  and  C_31
REMARK    8  A    between atoms: C_28  and  C_30
REMARK                            x       y       z     vdW  Elec       q    Type
REMARK                         _______ _______ _______ _____ _____    ______ ____
ROOT
ATOM      1  O   UNL     1       8.523  -1.386   0.000  0.00  0.00    +0.000 OA
ENDROOT
BRANCH   1   4
ATOM      2  O   UNL     1       9.972   1.141   0.000  0.00  0.00    +0.000 OA
ATOM      3  O   UNL     1       7.833   2.387   0.000  0.00  0.00    +0.000 OA
ATOM      4  C   UNL     1       8.523  -0.561   0.000  0.00  0.00    +0.000 A 
ATOM      5  C   UNL     1       9.266  -0.128   0.000  0.00  0.00    +0.000 A 
ATOM      6  C   UNL     1       7.781  -0.128   0.000  0.00  0.00    +0.000 A 
ATOM      7  C   UNL     1       9.256   0.731   0.000  0.00  0.00    +0.000 A 
ATOM      8  C   UNL     1       8.543   1.146   0.000  0.00  0.00    +0.000 A 
ATOM      9  C   UNL     1       7.791   0.731   0.000  0.00  0.00    +0.000 A 
ATOM     10  C   UNL     1       8.546   1.971   0.000  0.00  0.00    +0.000 A 
ATOM     11  C   UNL     1       9.975   1.966   0.000  0.00  0.00    +0.000 A 
ATOM     12  C   UNL     1       9.262   2.381   0.000  0.00  0.00    +0.000 A 
BRANCH  11  14
ATOM     13  O   UNL     1      12.839   3.605   0.000  0.00  0.00    +0.000 OA
ATOM     14  C   UNL     1      10.691   2.376   0.000  0.00  0.00    +0.000 A 
ATOM     15  C   UNL     1      11.404   1.960   0.000  0.00  0.00    +0.000 A 
ATOM     16  C   UNL     1      10.694   3.201   0.000  0.00  0.00    +0.000 A 
ATOM     17  C   UNL     1      12.120   2.370   0.000  0.00  0.00    +0.000 A 
ATOM     18  C   UNL     1      11.410   3.610   0.000  0.00  0.00    +0.000 A 
ATOM     19  C   UNL     1      12.123   3.195   0.000  0.00  0.00    +0.000 A 
ENDBRANCH  11  14
ENDBRANCH   1   4
BRANCH   1  28
ATOM     20  O   UNL     1       7.094  -1.386   0.000  0.00  0.00    +0.000 OA
ATOM     21  O   UNL     1       5.665  -3.036   0.000  0.00  0.00    +0.000 OA
ATOM     22  O   UNL     1       7.094  -3.861   0.000  0.00  0.00    +0.000 OA
ATOM     23  O   UNL     1       8.523  -3.036   0.000  0.00  0.00    +0.000 OA
ATOM     24  C   UNL     1       6.380  -2.623   0.000  0.00  0.00    +0.000 C 
ATOM     25  C   UNL     1       7.094  -3.036   0.000  0.00  0.00    +0.000 C 
ATOM     26  C   UNL     1       6.380  -1.798   0.000  0.00  0.00    +0.000 C 
ATOM     27  C   UNL     1       7.809  -2.623   0.000  0.00  0.00    +0.000 C 
ATOM     28  C   UNL     1       7.809  -1.798   0.000  0.00  0.00    +0.000 C 
BRANCH  26  29
ATOM     29  C   UNL     1       5.665  -1.386   0.000  0.00  0.00    +0.000 C 
BRANCH  29  30
ATOM     30  O   UNL     1       4.951  -1.798   0.000  0.00  0.00    +0.000 OA
BRANCH  30  32
ATOM     31  O   UNL     1       4.236  -0.561   0.000  0.00  0.00    +0.000 OA
ATOM     32  C   UNL     1       4.236  -1.386   0.000  0.00  0.00    +0.000 C 
BRANCH  32  33
ATOM     33  C   UNL     1       3.522  -1.798   0.000  0.00  0.00    +0.000 C 
BRANCH  33  36
ATOM     34  O   UNL     1       2.093  -1.798   0.000  0.00  0.00    +0.000 OA
ATOM     35  O   UNL     1       2.808  -0.561   0.000  0.00  0.00    +0.000 OA
ATOM     36  C   UNL     1       2.808  -1.386   0.000  0.00  0.00    +0.000 C 
ENDBRANCH  33  36
ENDBRANCH  32  33
ENDBRANCH  30  32
ENDBRANCH  29  30
ENDBRANCH  26  29
ENDBRANCH   1  28
TORSDOF 8
