REMARK  Name = 74978422
REMARK  6 active torsions:
REMARK  status: ('A' for Active; 'I' for Inactive)
REMARK    1  A    between atoms: O_2  and  C_17
REMARK    2  A    between atoms: O_2  and  C_19
REMARK    3  A    between atoms: O_8  and  C_24
REMARK    4  A    between atoms: O_9  and  C_26
REMARK    5  A    between atoms: C_16  and  C_18
REMARK    6  A    between atoms: C_27  and  C_28
REMARK                            x       y       z     vdW  Elec       q    Type
REMARK                         _______ _______ _______ _____ _____    ______ ____
ROOT
ATOM      1  O   UNL     1       7.137   1.755   0.000  0.00  0.00    +0.000 OA
ATOM      2  O   UNL     1       7.108  -0.720   0.000  0.00  0.00    +0.000 OA
ATOM      3  C   UNL     1       5.665   0.093   0.000  0.00  0.00    +0.000 A 
ATOM      4  C   UNL     1       6.408   0.526   0.000  0.00  0.00    +0.000 A 
ATOM      5  C   UNL     1       4.923   0.526   0.000  0.00  0.00    +0.000 A 
ATOM      6  C   UNL     1       6.417   1.351   0.000  0.00  0.00    +0.000 A 
ATOM      7  C   UNL     1       7.117   0.105   0.000  0.00  0.00    +0.000 A 
ATOM      8  C   UNL     1       4.933   1.385   0.000  0.00  0.00    +0.000 A 
ATOM      9  C   UNL     1       5.685   1.800   0.000  0.00  0.00    +0.000 A 
ATOM     10  C   UNL     1       7.837   0.509   0.000  0.00  0.00    +0.000 A 
ATOM     11  C   UNL     1       7.846   1.334   0.000  0.00  0.00    +0.000 A 
ENDROOT
BRANCH  11  14
ATOM     12  O   UNL     1      10.704   1.301   0.000  0.00  0.00    +0.000 OA
ATOM     13  O   UNL     1      10.723   2.951   0.000  0.00  0.00    +0.000 OA
ATOM     14  C   UNL     1       8.566   1.738   0.000  0.00  0.00    +0.000 A 
ATOM     15  C   UNL     1       9.275   1.318   0.000  0.00  0.00    +0.000 A 
ATOM     16  C   UNL     1       8.575   2.563   0.000  0.00  0.00    +0.000 A 
ATOM     17  C   UNL     1       9.994   1.722   0.000  0.00  0.00    +0.000 A 
ATOM     18  C   UNL     1       9.294   2.967   0.000  0.00  0.00    +0.000 A 
ATOM     19  C   UNL     1      10.004   2.547   0.000  0.00  0.00    +0.000 A 
ENDBRANCH  11  14
BRANCH   8  20
ATOM     20  O   UNL     1       4.225   1.809   0.000  0.00  0.00    +0.000 OA
ATOM     21  C   UNL     1       4.237   2.633   0.000  0.00  0.00    +0.000 C 
ENDBRANCH   8  20
BRANCH  10  22
ATOM     22  O   UNL     1       8.546   0.088   0.000  0.00  0.00    +0.000 OA
ATOM     23  C   UNL     1       8.537  -0.736   0.000  0.00  0.00    +0.000 C 
ENDBRANCH  10  22
BRANCH   3  24
ATOM     24  O   UNL     1       5.665  -0.732   0.000  0.00  0.00    +0.000 OA
BRANCH  24  33
ATOM     25  O   UNL     1       4.236  -0.732   0.000  0.00  0.00    +0.000 OA
ATOM     26  O   UNL     1       4.236  -3.207   0.000  0.00  0.00    +0.000 OA
ATOM     27  O   UNL     1       2.808  -2.382   0.000  0.00  0.00    +0.000 OA
ATOM     28  O   UNL     1       5.665  -2.382   0.000  0.00  0.00    +0.000 OA
ATOM     29  C   UNL     1       4.236  -2.382   0.000  0.00  0.00    +0.000 C 
ATOM     30  C   UNL     1       3.522  -1.969   0.000  0.00  0.00    +0.000 C 
ATOM     31  C   UNL     1       4.951  -1.969   0.000  0.00  0.00    +0.000 C 
ATOM     32  C   UNL     1       3.522  -1.144   0.000  0.00  0.00    +0.000 C 
ATOM     33  C   UNL     1       4.951  -1.144   0.000  0.00  0.00    +0.000 C 
BRANCH  32  35
ATOM     34  O   UNL     1       2.093  -1.144   0.000  0.00  0.00    +0.000 OA
ATOM     35  C   UNL     1       2.808  -0.732   0.000  0.00  0.00    +0.000 C 
ENDBRANCH  32  35
ENDBRANCH  24  33
ENDBRANCH   3  24
TORSDOF 6
