REMARK  Name = 131752174
REMARK  10 active torsions:
REMARK  status: ('A' for Active; 'I' for Inactive)
REMARK    1  A    between atoms: O_3  and  C_23
REMARK    2  A    between atoms: O_3  and  C_28
REMARK    3  A    between atoms: O_6  and  C_26
REMARK    4  A    between atoms: O_6  and  C_30
REMARK    5  A    between atoms: O_14  and  C_44
REMARK    6  A    between atoms: O_14  and  C_45
REMARK    7  A    between atoms: C_18  and  C_28
REMARK    8  A    between atoms: C_37  and  C_39
REMARK    9  A    between atoms: C_45  and  C_46
REMARK   10  A    between atoms: C_47  and  C_48
REMARK                            x       y       z     vdW  Elec       q    Type
REMARK                         _______ _______ _______ _____ _____    ______ ____
ROOT
ATOM      1  O   UNL     1       4.916  -0.190   0.000  0.00  0.00    +0.000 OA
ATOM      2  O   UNL     1       3.459  -2.685   0.000  0.00  0.00    +0.000 OA
ATOM      3  O   UNL     1       2.768  -1.419   0.000  0.00  0.00    +0.000 OA
ATOM      4  C   UNL     1       5.665  -2.295   0.000  0.00  0.00    +0.000 A 
ATOM      5  C   UNL     1       5.662  -1.436   0.000  0.00  0.00    +0.000 A 
ATOM      6  C   UNL     1       4.919  -2.722   0.000  0.00  0.00    +0.000 A 
ATOM      7  C   UNL     1       4.913  -1.015   0.000  0.00  0.00    +0.000 A 
ATOM      8  C   UNL     1       4.180  -2.284   0.000  0.00  0.00    +0.000 A 
ATOM      9  C   UNL     1       4.197  -1.425   0.000  0.00  0.00    +0.000 A 
ATOM     10  C   UNL     1       3.484  -1.009   0.000  0.00  0.00    +0.000 A 
ATOM     11  C   UNL     1       4.203   0.226   0.000  0.00  0.00    +0.000 A 
ATOM     12  C   UNL     1       3.487  -0.184   0.000  0.00  0.00    +0.000 A 
ENDROOT
BRANCH  11  13
ATOM     13  C   UNL     1       4.206   1.050   0.000  0.00  0.00    +0.000 A 
ATOM     14  C   UNL     1       3.493   1.466   0.000  0.00  0.00    +0.000 A 
ATOM     15  C   UNL     1       4.922   1.460   0.000  0.00  0.00    +0.000 A 
ATOM     16  C   UNL     1       3.497   2.291   0.000  0.00  0.00    +0.000 A 
ATOM     17  C   UNL     1       4.926   2.285   0.000  0.00  0.00    +0.000 A 
ATOM     18  C   UNL     1       4.213   2.700   0.000  0.00  0.00    +0.000 A 
BRANCH  18  19
ATOM     19  O   UNL     1       4.216   3.525   0.000  0.00  0.00    +0.000 OA
BRANCH  19  21
ATOM     20  O   UNL     1       2.787   3.531   0.000  0.00  0.00    +0.000 OA
ATOM     21  C   UNL     1       3.503   3.941   0.000  0.00  0.00    +0.000 C 
BRANCH  21  22
ATOM     22  C   UNL     1       3.506   4.766   0.000  0.00  0.00    +0.000 C 
ATOM     23  C   UNL     1       2.793   5.181   0.000  0.00  0.00    +0.000 C 
BRANCH  23  26
ATOM     24  O   UNL     1       4.232   7.650   0.000  0.00  0.00    +0.000 OA
ATOM     25  O   UNL     1       2.806   8.481   0.000  0.00  0.00    +0.000 OA
ATOM     26  C   UNL     1       2.796   6.006   0.000  0.00  0.00    +0.000 A 
ATOM     27  C   UNL     1       3.513   6.416   0.000  0.00  0.00    +0.000 A 
ATOM     28  C   UNL     1       2.084   6.421   0.000  0.00  0.00    +0.000 A 
ATOM     29  C   UNL     1       3.516   7.241   0.000  0.00  0.00    +0.000 A 
ATOM     30  C   UNL     1       2.087   7.246   0.000  0.00  0.00    +0.000 A 
ATOM     31  C   UNL     1       2.803   7.656   0.000  0.00  0.00    +0.000 A 
ENDBRANCH  23  26
ENDBRANCH  21  22
ENDBRANCH  19  21
ENDBRANCH  18  19
ENDBRANCH  11  13
BRANCH   4  32
ATOM     32  O   UNL     1       6.380  -2.708   0.000  0.00  0.00    +0.000 OA
BRANCH  32  41
ATOM     33  O   UNL     1       5.665  -3.945   0.000  0.00  0.00    +0.000 OA
ATOM     34  O   UNL     1       6.380  -6.008   0.000  0.00  0.00    +0.000 OA
ATOM     35  O   UNL     1       7.809  -5.183   0.000  0.00  0.00    +0.000 OA
ATOM     36  O   UNL     1       7.809  -3.533   0.000  0.00  0.00    +0.000 OA
ATOM     37  C   UNL     1       5.665  -4.770   0.000  0.00  0.00    +0.000 C 
ATOM     38  C   UNL     1       6.380  -5.183   0.000  0.00  0.00    +0.000 C 
ATOM     39  C   UNL     1       7.094  -4.770   0.000  0.00  0.00    +0.000 C 
ATOM     40  C   UNL     1       7.094  -3.945   0.000  0.00  0.00    +0.000 C 
ATOM     41  C   UNL     1       6.380  -3.533   0.000  0.00  0.00    +0.000 C 
BRANCH  37  42
ATOM     42  C   UNL     1       4.951  -5.183   0.000  0.00  0.00    +0.000 C 
BRANCH  42  43
ATOM     43  O   UNL     1       4.951  -6.008   0.000  0.00  0.00    +0.000 OA
BRANCH  43  49
ATOM     44  O   UNL     1       3.522  -6.008   0.000  0.00  0.00    +0.000 OA
ATOM     45  O   UNL     1       4.951  -7.658   0.000  0.00  0.00    +0.000 OA
ATOM     46  O   UNL     1       3.522  -8.483   0.000  0.00  0.00    +0.000 OA
ATOM     47  O   UNL     1       2.093  -7.658   0.000  0.00  0.00    +0.000 OA
ATOM     48  C   UNL     1       4.236  -7.245   0.000  0.00  0.00    +0.000 C 
ATOM     49  C   UNL     1       4.236  -6.420   0.000  0.00  0.00    +0.000 C 
ATOM     50  C   UNL     1       3.522  -7.658   0.000  0.00  0.00    +0.000 C 
ATOM     51  C   UNL     1       2.808  -7.245   0.000  0.00  0.00    +0.000 C 
ATOM     52  C   UNL     1       2.808  -6.420   0.000  0.00  0.00    +0.000 C 
ATOM     53  C   UNL     1       2.093  -6.008   0.000  0.00  0.00    +0.000 C 
ENDBRANCH  43  49
ENDBRANCH  42  43
ENDBRANCH  37  42
ENDBRANCH  32  41
ENDBRANCH   4  32
TORSDOF 10
