REMARK  Name = 10531745
REMARK  9 active torsions:
REMARK  status: ('A' for Active; 'I' for Inactive)
REMARK    1  A    between atoms: O_1  and  C_16
REMARK    2  A    between atoms: O_1  and  C_20
REMARK    3  A    between atoms: O_7  and  C_22
REMARK    4  A    between atoms: O_7  and  C_27
REMARK    5  A    between atoms: O_10  and  C_26
REMARK    6  A    between atoms: O_10  and  C_30
REMARK    7  A    between atoms: C_17  and  C_25
REMARK    8  A    between atoms: C_23  and  C_26
REMARK    9  A    between atoms: C_36  and  C_38
REMARK                            x       y       z     vdW  Elec       q    Type
REMARK                         _______ _______ _______ _____ _____    ______ ____
ROOT
ATOM      1  O   UNL     1       5.222  -1.386   0.000  0.00  0.00    +0.000 OA
ATOM      2  O   UNL     1       5.222  -3.861   0.000  0.00  0.00    +0.000 OA
ATOM      3  O   UNL     1       3.793  -3.036   0.000  0.00  0.00    +0.000 OA
ATOM      4  C   UNL     1       5.937  -2.623   0.000  0.00  0.00    +0.000 C 
ATOM      5  C   UNL     1       5.222  -3.036   0.000  0.00  0.00    +0.000 C 
ATOM      6  C   UNL     1       4.508  -2.623   0.000  0.00  0.00    +0.000 C 
ATOM      7  C   UNL     1       5.937  -1.798   0.000  0.00  0.00    +0.000 C 
ATOM      8  C   UNL     1       4.508  -1.798   0.000  0.00  0.00    +0.000 C 
ENDROOT
BRANCH   4   9
ATOM      9  O   UNL     1       6.651  -3.036   0.000  0.00  0.00    +0.000 OA
BRANCH   9  15
ATOM     10  O   UNL     1       7.452  -1.803   0.000  0.00  0.00    +0.000 OA
ATOM     11  O   UNL     1       9.386  -1.933   0.000  0.00  0.00    +0.000 OA
ATOM     12  O   UNL     1       8.291  -3.766   0.000  0.00  0.00    +0.000 OA
ATOM     13  C   UNL     1       8.671  -2.346   0.000  0.00  0.00    +0.000 C 
ATOM     14  C   UNL     1       8.120  -2.959   0.000  0.00  0.00    +0.000 C 
ATOM     15  C   UNL     1       7.366  -2.623   0.000  0.00  0.00    +0.000 C 
ATOM     16  C   UNL     1       8.259  -1.631   0.000  0.00  0.00    +0.000 C 
BRANCH  13  18
ATOM     17  O   UNL     1      10.069  -2.643   0.000  0.00  0.00    +0.000 OA
ATOM     18  C   UNL     1       9.284  -2.898   0.000  0.00  0.00    +0.000 C 
ENDBRANCH  13  18
ENDBRANCH   9  15
ENDBRANCH   4   9
BRANCH   7  19
ATOM     19  O   UNL     1       6.651  -1.386   0.000  0.00  0.00    +0.000 OA
BRANCH  19  23
ATOM     20  O   UNL     1       8.100   1.141   0.000  0.00  0.00    +0.000 OA
ATOM     21  O   UNL     1       5.211   1.155   0.000  0.00  0.00    +0.000 OA
ATOM     22  O   UNL     1       5.961   2.387   0.000  0.00  0.00    +0.000 OA
ATOM     23  C   UNL     1       6.651  -0.561   0.000  0.00  0.00    +0.000 A 
ATOM     24  C   UNL     1       7.394  -0.128   0.000  0.00  0.00    +0.000 A 
ATOM     25  C   UNL     1       5.909  -0.128   0.000  0.00  0.00    +0.000 A 
ATOM     26  C   UNL     1       7.384   0.731   0.000  0.00  0.00    +0.000 A 
ATOM     27  C   UNL     1       5.919   0.731   0.000  0.00  0.00    +0.000 A 
ATOM     28  C   UNL     1       6.671   1.146   0.000  0.00  0.00    +0.000 A 
ATOM     29  C   UNL     1       6.674   1.971   0.000  0.00  0.00    +0.000 A 
ATOM     30  C   UNL     1       8.103   1.966   0.000  0.00  0.00    +0.000 A 
ATOM     31  C   UNL     1       7.390   2.381   0.000  0.00  0.00    +0.000 A 
BRANCH  30  33
ATOM     32  O   UNL     1      10.967   3.605   0.000  0.00  0.00    +0.000 OA
ATOM     33  C   UNL     1       8.819   2.376   0.000  0.00  0.00    +0.000 A 
ATOM     34  C   UNL     1       8.822   3.201   0.000  0.00  0.00    +0.000 A 
ATOM     35  C   UNL     1       9.532   1.960   0.000  0.00  0.00    +0.000 A 
ATOM     36  C   UNL     1       9.538   3.610   0.000  0.00  0.00    +0.000 A 
ATOM     37  C   UNL     1      10.248   2.370   0.000  0.00  0.00    +0.000 A 
ATOM     38  C   UNL     1      10.251   3.195   0.000  0.00  0.00    +0.000 A 
ENDBRANCH  30  33
ENDBRANCH  19  23
ENDBRANCH   7  19
BRANCH   8  39
ATOM     39  C   UNL     1       3.793  -1.386   0.000  0.00  0.00    +0.000 C 
BRANCH  39  40
ATOM     40  O   UNL     1       3.079  -1.798   0.000  0.00  0.00    +0.000 OA
BRANCH  40  42
ATOM     41  O   UNL     1       2.364  -0.561   0.000  0.00  0.00    +0.000 OA
ATOM     42  C   UNL     1       2.364  -1.386   0.000  0.00  0.00    +0.000 C 
ATOM     43  C   UNL     1       1.650  -1.798   0.000  0.00  0.00    +0.000 C 
ENDBRANCH  40  42
ENDBRANCH  39  40
ENDBRANCH   8  39
TORSDOF 9
