REMARK  Name = 74977759
REMARK  3 active torsions:
REMARK  status: ('A' for Active; 'I' for Inactive)
REMARK    1  A    between atoms: C_15  and  C_18
REMARK    2  A    between atoms: C_17  and  C_19
REMARK    3  A    between atoms: C_26  and  C_28
REMARK                            x       y       z     vdW  Elec       q    Type
REMARK                         _______ _______ _______ _____ _____    ______ ____
ROOT
ATOM      1  O   UNL     1       6.380   1.379   0.000  0.00  0.00    +0.000 OA
ATOM      2  O   UNL     1       4.951  -1.095   0.000  0.00  0.00    +0.000 OA
ATOM      3  O   UNL     1       7.832  -1.124   0.000  0.00  0.00    +0.000 OA
ATOM      4  O   UNL     1       7.822   1.408   0.000  0.00  0.00    +0.000 OA
ATOM      5  C   UNL     1       5.665   0.142   0.000  0.00  0.00    +0.000 A 
ATOM      6  C   UNL     1       6.380   0.554   0.000  0.00  0.00    +0.000 A 
ATOM      7  C   UNL     1       5.665  -0.683   0.000  0.00  0.00    +0.000 A 
ATOM      8  C   UNL     1       7.094   0.142   0.000  0.00  0.00    +0.000 A 
ATOM      9  C   UNL     1       6.380  -1.095   0.000  0.00  0.00    +0.000 A 
ATOM     10  C   UNL     1       7.094  -0.683   0.000  0.00  0.00    +0.000 A 
ATOM     11  C   UNL     1       7.832   0.583   0.000  0.00  0.00    +0.000 A 
ATOM     12  C   UNL     1       8.579  -0.700   0.000  0.00  0.00    +0.000 A 
ATOM     13  C   UNL     1       8.579   0.159   0.000  0.00  0.00    +0.000 A 
ENDROOT
BRANCH   5  20
ATOM     14  O   UNL     1       4.236   0.142   0.000  0.00  0.00    +0.000 OA
ATOM     15  O   UNL     1       5.665   1.792   0.000  0.00  0.00    +0.000 OA
ATOM     16  O   UNL     1       4.236   2.617   0.000  0.00  0.00    +0.000 OA
ATOM     17  O   UNL     1       2.808   1.792   0.000  0.00  0.00    +0.000 OA
ATOM     18  C   UNL     1       4.951   1.379   0.000  0.00  0.00    +0.000 C 
ATOM     19  C   UNL     1       4.236   1.792   0.000  0.00  0.00    +0.000 C 
ATOM     20  C   UNL     1       4.951   0.554   0.000  0.00  0.00    +0.000 C 
ATOM     21  C   UNL     1       3.522   1.379   0.000  0.00  0.00    +0.000 C 
ATOM     22  C   UNL     1       3.522   0.554   0.000  0.00  0.00    +0.000 C 
BRANCH  22  24
ATOM     23  O   UNL     1       2.093   0.554   0.000  0.00  0.00    +0.000 OA
ATOM     24  C   UNL     1       2.808   0.142   0.000  0.00  0.00    +0.000 C 
ENDBRANCH  22  24
ENDBRANCH   5  20
BRANCH  12  28
ATOM     25  O   UNL     1       8.573  -2.350   0.000  0.00  0.00    +0.000 OA
ATOM     26  O   UNL     1      11.437  -0.711   0.000  0.00  0.00    +0.000 OA
ATOM     27  O   UNL     1      11.431  -2.361   0.000  0.00  0.00    +0.000 OA
ATOM     28  C   UNL     1       9.292  -1.115   0.000  0.00  0.00    +0.000 A 
ATOM     29  C   UNL     1       9.289  -1.940   0.000  0.00  0.00    +0.000 A 
ATOM     30  C   UNL     1      10.008  -0.706   0.000  0.00  0.00    +0.000 A 
ATOM     31  C   UNL     1      10.721  -1.121   0.000  0.00  0.00    +0.000 A 
ATOM     32  C   UNL     1      10.002  -2.356   0.000  0.00  0.00    +0.000 A 
ATOM     33  C   UNL     1      10.718  -1.946   0.000  0.00  0.00    +0.000 A 
ENDBRANCH  12  28
TORSDOF 3
