REMARK  Name = 74978175
REMARK  10 active torsions:
REMARK  status: ('A' for Active; 'I' for Inactive)
REMARK    1  A    between atoms: O_4  and  C_35
REMARK    2  A    between atoms: O_4  and  C_41
REMARK    3  A    between atoms: O_5  and  C_36
REMARK    4  A    between atoms: O_5  and  C_42
REMARK    5  A    between atoms: O_9  and  C_37
REMARK    6  A    between atoms: O_9  and  C_44
REMARK    7  A    between atoms: C_26  and  C_38
REMARK    8  A    between atoms: C_32  and  C_39
REMARK    9  A    between atoms: C_34  and  C_40
REMARK   10  A    between atoms: C_43  and  C_48
REMARK                            x       y       z     vdW  Elec       q    Type
REMARK                         _______ _______ _______ _____ _____    ______ ____
ROOT
ATOM      1  O   UNL     1       6.389   0.048   0.000  0.00  0.00    +0.000 OA
ATOM      2  O   UNL     1       4.245  -1.189   0.000  0.00  0.00    +0.000 OA
ATOM      3  O   UNL     1       3.499   0.046   0.000  0.00  0.00    +0.000 OA
ATOM      4  C   UNL     1       5.674  -1.189   0.000  0.00  0.00    +0.000 A 
ATOM      5  C   UNL     1       4.947   1.756   0.000  0.00  0.00    +0.000 A 
ATOM      6  C   UNL     1       6.389  -0.777   0.000  0.00  0.00    +0.000 A 
ATOM      7  C   UNL     1       4.960   0.048   0.000  0.00  0.00    +0.000 A 
ATOM      8  C   UNL     1       4.960  -0.777   0.000  0.00  0.00    +0.000 A 
ATOM      9  C   UNL     1       5.674   0.461   0.000  0.00  0.00    +0.000 A 
ATOM     10  C   UNL     1       5.688   1.320   0.000  0.00  0.00    +0.000 A 
ATOM     11  C   UNL     1       4.202   1.326   0.000  0.00  0.00    +0.000 A 
ATOM     12  C   UNL     1       4.209   0.467   0.000  0.00  0.00    +0.000 A 
ENDROOT
BRANCH   6  15
ATOM     13  O   UNL     1       9.247  -0.777   0.000  0.00  0.00    +0.000 OA
ATOM     14  C   UNL     1       8.532  -2.014   0.000  0.00  0.00    +0.000 A 
ATOM     15  C   UNL     1       7.103  -1.189   0.000  0.00  0.00    +0.000 A 
ATOM     16  C   UNL     1       8.532  -1.189   0.000  0.00  0.00    +0.000 A 
ATOM     17  C   UNL     1       7.818  -2.427   0.000  0.00  0.00    +0.000 A 
ATOM     18  C   UNL     1       7.818  -0.777   0.000  0.00  0.00    +0.000 A 
ATOM     19  C   UNL     1       7.103  -2.014   0.000  0.00  0.00    +0.000 A 
BRANCH  14  20
ATOM     20  O   UNL     1       9.247  -2.427   0.000  0.00  0.00    +0.000 OA
BRANCH  20  29
ATOM     21  O   UNL     1       8.532  -3.664   0.000  0.00  0.00    +0.000 OA
ATOM     22  O   UNL     1      10.676  -4.902   0.000  0.00  0.00    +0.000 OA
ATOM     23  O   UNL     1       9.247  -5.727   0.000  0.00  0.00    +0.000 OA
ATOM     24  O   UNL     1      10.676  -3.252   0.000  0.00  0.00    +0.000 OA
ATOM     25  C   UNL     1       9.961  -4.489   0.000  0.00  0.00    +0.000 C 
ATOM     26  C   UNL     1       9.247  -4.902   0.000  0.00  0.00    +0.000 C 
ATOM     27  C   UNL     1       9.961  -3.664   0.000  0.00  0.00    +0.000 C 
ATOM     28  C   UNL     1       8.532  -4.489   0.000  0.00  0.00    +0.000 C 
ATOM     29  C   UNL     1       9.247  -3.252   0.000  0.00  0.00    +0.000 C 
BRANCH  28  31
ATOM     30  O   UNL     1       7.818  -5.727   0.000  0.00  0.00    +0.000 OA
ATOM     31  C   UNL     1       7.818  -4.902   0.000  0.00  0.00    +0.000 C 
ENDBRANCH  28  31
ENDBRANCH  20  29
ENDBRANCH  14  20
ENDBRANCH   6  15
BRANCH   4  32
ATOM     32  O   UNL     1       5.674  -2.014   0.000  0.00  0.00    +0.000 OA
BRANCH  32  41
ATOM     33  O   UNL     1       4.245  -2.014   0.000  0.00  0.00    +0.000 OA
ATOM     34  O   UNL     1       4.245  -4.489   0.000  0.00  0.00    +0.000 OA
ATOM     35  O   UNL     1       2.816  -3.664   0.000  0.00  0.00    +0.000 OA
ATOM     36  O   UNL     1       5.674  -3.664   0.000  0.00  0.00    +0.000 OA
ATOM     37  C   UNL     1       4.245  -3.664   0.000  0.00  0.00    +0.000 C 
ATOM     38  C   UNL     1       3.531  -3.252   0.000  0.00  0.00    +0.000 C 
ATOM     39  C   UNL     1       4.960  -3.252   0.000  0.00  0.00    +0.000 C 
ATOM     40  C   UNL     1       3.531  -2.427   0.000  0.00  0.00    +0.000 C 
ATOM     41  C   UNL     1       4.960  -2.427   0.000  0.00  0.00    +0.000 C 
BRANCH  40  43
ATOM     42  O   UNL     1       2.102  -2.427   0.000  0.00  0.00    +0.000 OA
ATOM     43  C   UNL     1       2.816  -2.014   0.000  0.00  0.00    +0.000 C 
ENDBRANCH  40  43
ENDBRANCH  32  41
ENDBRANCH   4  32
BRANCH   5  44
ATOM     44  O   UNL     1       4.950   2.581   0.000  0.00  0.00    +0.000 OA
BRANCH  44  53
ATOM     45  O   UNL     1       4.240   3.821   0.000  0.00  0.00    +0.000 OA
ATOM     46  O   UNL     1       2.092   2.592   0.000  0.00  0.00    +0.000 OA
ATOM     47  O   UNL     1       2.098   4.242   0.000  0.00  0.00    +0.000 OA
ATOM     48  O   UNL     1       3.518   1.761   0.000  0.00  0.00    +0.000 OA
ATOM     49  C   UNL     1       2.808   3.001   0.000  0.00  0.00    +0.000 C 
ATOM     50  C   UNL     1       2.811   3.826   0.000  0.00  0.00    +0.000 C 
ATOM     51  C   UNL     1       3.521   2.586   0.000  0.00  0.00    +0.000 C 
ATOM     52  C   UNL     1       3.527   4.236   0.000  0.00  0.00    +0.000 C 
ATOM     53  C   UNL     1       4.237   2.996   0.000  0.00  0.00    +0.000 C 
BRANCH  52  55
ATOM     54  O   UNL     1       4.247   5.471   0.000  0.00  0.00    +0.000 OA
ATOM     55  C   UNL     1       3.530   5.061   0.000  0.00  0.00    +0.000 C 
ENDBRANCH  52  55
ENDBRANCH  44  53
ENDBRANCH   5  44
TORSDOF 10
