REMARK  Name = 44259790
REMARK  6 active torsions:
REMARK  status: ('A' for Active; 'I' for Inactive)
REMARK    1  A    between atoms: O_2  and  C_18
REMARK    2  A    between atoms: O_2  and  C_20
REMARK    3  A    between atoms: O_10  and  C_28
REMARK    4  A    between atoms: O_12  and  C_32
REMARK    5  A    between atoms: C_17  and  C_19
REMARK    6  A    between atoms: C_21  and  C_25
REMARK                            x       y       z     vdW  Elec       q    Type
REMARK                         _______ _______ _______ _____ _____    ______ ____
ROOT
ATOM      1  O   UNL     1       6.380   1.004   0.000  0.00  0.00    +0.000 OA
ATOM      2  O   UNL     1       4.236  -0.234   0.000  0.00  0.00    +0.000 OA
ATOM      3  O   UNL     1       3.490   1.001   0.000  0.00  0.00    +0.000 OA
ATOM      4  O   UNL     1       4.941   3.536   0.000  0.00  0.00    +0.000 OA
ATOM      5  C   UNL     1       5.665  -0.234   0.000  0.00  0.00    +0.000 A 
ATOM      6  C   UNL     1       6.380   0.178   0.000  0.00  0.00    +0.000 A 
ATOM      7  C   UNL     1       4.951   0.178   0.000  0.00  0.00    +0.000 A 
ATOM      8  C   UNL     1       4.951   1.004   0.000  0.00  0.00    +0.000 A 
ATOM      9  C   UNL     1       5.665   1.416   0.000  0.00  0.00    +0.000 A 
ATOM     10  C   UNL     1       4.200   1.422   0.000  0.00  0.00    +0.000 A 
ATOM     11  C   UNL     1       5.679   2.275   0.000  0.00  0.00    +0.000 A 
ATOM     12  C   UNL     1       4.194   2.281   0.000  0.00  0.00    +0.000 A 
ATOM     13  C   UNL     1       4.938   2.711   0.000  0.00  0.00    +0.000 A 
ENDROOT
BRANCH   6  15
ATOM     14  O   UNL     1       9.238  -1.472   0.000  0.00  0.00    +0.000 OA
ATOM     15  C   UNL     1       7.094  -0.234   0.000  0.00  0.00    +0.000 A 
ATOM     16  C   UNL     1       7.809   0.178   0.000  0.00  0.00    +0.000 A 
ATOM     17  C   UNL     1       7.094  -1.059   0.000  0.00  0.00    +0.000 A 
ATOM     18  C   UNL     1       8.523  -0.234   0.000  0.00  0.00    +0.000 A 
ATOM     19  C   UNL     1       7.809  -1.472   0.000  0.00  0.00    +0.000 A 
ATOM     20  C   UNL     1       8.523  -1.059   0.000  0.00  0.00    +0.000 A 
BRANCH  18  21
ATOM     21  O   UNL     1       9.238   0.178   0.000  0.00  0.00    +0.000 OA
ATOM     22  C   UNL     1       9.238   1.004   0.000  0.00  0.00    +0.000 C 
ENDBRANCH  18  21
ENDBRANCH   6  15
BRANCH  12  23
ATOM     23  O   UNL     1       3.478   2.691   0.000  0.00  0.00    +0.000 OA
ATOM     24  C   UNL     1       3.474   3.516   0.000  0.00  0.00    +0.000 C 
ENDBRANCH  12  23
BRANCH   5  25
ATOM     25  O   UNL     1       5.665  -1.059   0.000  0.00  0.00    +0.000 OA
BRANCH  25  34
ATOM     26  O   UNL     1       4.236  -1.059   0.000  0.00  0.00    +0.000 OA
ATOM     27  O   UNL     1       4.236  -3.534   0.000  0.00  0.00    +0.000 OA
ATOM     28  O   UNL     1       2.808  -2.709   0.000  0.00  0.00    +0.000 OA
ATOM     29  O   UNL     1       5.665  -2.709   0.000  0.00  0.00    +0.000 OA
ATOM     30  C   UNL     1       4.236  -2.709   0.000  0.00  0.00    +0.000 C 
ATOM     31  C   UNL     1       3.522  -2.296   0.000  0.00  0.00    +0.000 C 
ATOM     32  C   UNL     1       4.951  -2.296   0.000  0.00  0.00    +0.000 C 
ATOM     33  C   UNL     1       3.522  -1.472   0.000  0.00  0.00    +0.000 C 
ATOM     34  C   UNL     1       4.951  -1.472   0.000  0.00  0.00    +0.000 C 
BRANCH  33  36
ATOM     35  O   UNL     1       2.093  -1.472   0.000  0.00  0.00    +0.000 OA
ATOM     36  C   UNL     1       2.808  -1.059   0.000  0.00  0.00    +0.000 C 
ENDBRANCH  33  36
ENDBRANCH  25  34
ENDBRANCH   5  25
TORSDOF 6
