REMARK  Name = 5320092
REMARK  6 active torsions:
REMARK  status: ('A' for Active; 'I' for Inactive)
REMARK    1  A    between atoms: O_4  and  C_14
REMARK    2  A    between atoms: O_4  and  C_16
REMARK    3  A    between atoms: C_12  and  C_15
REMARK    4  A    between atoms: C_21  and  C_22
REMARK    5  A    between atoms: C_22  and  C_23
REMARK    6  A    between atoms: C_24  and  C_25
REMARK                            x       y       z     vdW  Elec       q    Type
REMARK                         _______ _______ _______ _____ _____    ______ ____
ROOT
ATOM      1  O   UNL     1       3.522   0.491   0.000  0.00  0.00    +0.000 OA
ATOM      2  C   UNL     1       4.951  -1.159   0.000  0.00  0.00    +0.000 A 
ATOM      3  C   UNL     1       4.236  -0.747   0.000  0.00  0.00    +0.000 A 
ATOM      4  C   UNL     1       5.665  -0.747   0.000  0.00  0.00    +0.000 A 
ATOM      5  C   UNL     1       4.236   0.078   0.000  0.00  0.00    +0.000 A 
ATOM      6  C   UNL     1       5.665   0.078   0.000  0.00  0.00    +0.000 A 
ATOM      7  C   UNL     1       4.951   0.491   0.000  0.00  0.00    +0.000 A 
ENDROOT
BRANCH   7   9
ATOM      8  O   UNL     1       4.236   1.728   0.000  0.00  0.00    +0.000 OA
ATOM      9  C   UNL     1       4.951   1.316   0.000  0.00  0.00    +0.000 C 
BRANCH   9  10
ATOM     10  C   UNL     1       5.665   1.728   0.000  0.00  0.00    +0.000 C 
ATOM     11  C   UNL     1       5.665   2.553   0.000  0.00  0.00    +0.000 C 
BRANCH  11  13
ATOM     12  O   UNL     1       8.523   4.203   0.000  0.00  0.00    +0.000 OA
ATOM     13  C   UNL     1       6.380   2.966   0.000  0.00  0.00    +0.000 A 
ATOM     14  C   UNL     1       6.380   3.791   0.000  0.00  0.00    +0.000 A 
ATOM     15  C   UNL     1       7.094   2.553   0.000  0.00  0.00    +0.000 A 
ATOM     16  C   UNL     1       7.094   4.203   0.000  0.00  0.00    +0.000 A 
ATOM     17  C   UNL     1       7.809   2.966   0.000  0.00  0.00    +0.000 A 
ATOM     18  C   UNL     1       7.809   3.791   0.000  0.00  0.00    +0.000 A 
ENDBRANCH  11  13
ENDBRANCH   9  10
ENDBRANCH   7   9
BRANCH   2  19
ATOM     19  O   UNL     1       4.951  -1.984   0.000  0.00  0.00    +0.000 OA
BRANCH  19  28
ATOM     20  O   UNL     1       3.522  -1.984   0.000  0.00  0.00    +0.000 OA
ATOM     21  O   UNL     1       2.093  -3.634   0.000  0.00  0.00    +0.000 OA
ATOM     22  O   UNL     1       3.522  -4.459   0.000  0.00  0.00    +0.000 OA
ATOM     23  O   UNL     1       4.951  -3.634   0.000  0.00  0.00    +0.000 OA
ATOM     24  C   UNL     1       2.808  -3.222   0.000  0.00  0.00    +0.000 C 
ATOM     25  C   UNL     1       3.522  -3.634   0.000  0.00  0.00    +0.000 C 
ATOM     26  C   UNL     1       2.808  -2.397   0.000  0.00  0.00    +0.000 C 
ATOM     27  C   UNL     1       4.236  -3.222   0.000  0.00  0.00    +0.000 C 
ATOM     28  C   UNL     1       4.236  -2.397   0.000  0.00  0.00    +0.000 C 
BRANCH  26  30
ATOM     29  O   UNL     1       2.093  -1.159   0.000  0.00  0.00    +0.000 OA
ATOM     30  C   UNL     1       2.093  -1.984   0.000  0.00  0.00    +0.000 C 
ENDBRANCH  26  30
ENDBRANCH  19  28
ENDBRANCH   2  19
TORSDOF 6
