REMARK  Name = 131752162
REMARK  15 active torsions:
REMARK  status: ('A' for Active; 'I' for Inactive)
REMARK    1  A    between atoms: O_1  and  C_25
REMARK    2  A    between atoms: O_1  and  C_30
REMARK    3  A    between atoms: O_10  and  C_37
REMARK    4  A    between atoms: O_10  and  C_52
REMARK    5  A    between atoms: O_15  and  C_47
REMARK    6  A    between atoms: O_15  and  C_54
REMARK    7  A    between atoms: O_22  and  C_56
REMARK    8  A    between atoms: O_23  and  C_65
REMARK    9  A    between atoms: C_27  and  C_35
REMARK   10  A    between atoms: C_29  and  C_36
REMARK   11  A    between atoms: C_34  and  C_37
REMARK   12  A    between atoms: C_46  and  C_49
REMARK   13  A    between atoms: C_50  and  C_53
REMARK   14  A    between atoms: C_52  and  C_59
REMARK   15  A    between atoms: C_60  and  C_61
REMARK                            x       y       z     vdW  Elec       q    Type
REMARK                         _______ _______ _______ _____ _____    ______ ____
ROOT
ATOM      1  O   UNL     1      11.381   1.407   0.000  0.00  0.00    +0.000 OA
ATOM      2  O   UNL     1       9.238   0.170   0.000  0.00  0.00    +0.000 OA
ATOM      3  O   UNL     1       9.238   1.819   0.000  0.00  0.00    +0.000 OA
ATOM      4  C   UNL     1      10.667   0.170   0.000  0.00  0.00    +0.000 C 
ATOM      5  C   UNL     1       9.952   0.582   0.000  0.00  0.00    +0.000 C 
ATOM      6  C   UNL     1      11.381   0.582   0.000  0.00  0.00    +0.000 C 
ATOM      7  C   UNL     1       9.952   1.407   0.000  0.00  0.00    +0.000 C 
ATOM      8  C   UNL     1      10.667   1.819   0.000  0.00  0.00    +0.000 C 
ENDROOT
BRANCH   6  13
ATOM      9  O   UNL     1      12.810   1.407   0.000  0.00  0.00    +0.000 OA
ATOM     10  O   UNL     1      11.381  -1.068   0.000  0.00  0.00    +0.000 OA
ATOM     11  O   UNL     1      14.262  -1.097   0.000  0.00  0.00    +0.000 OA
ATOM     12  O   UNL     1      14.253   1.435   0.000  0.00  0.00    +0.000 OA
ATOM     13  C   UNL     1      12.096   0.170   0.000  0.00  0.00    +0.000 A 
ATOM     14  C   UNL     1      12.810   0.582   0.000  0.00  0.00    +0.000 A 
ATOM     15  C   UNL     1      12.096  -0.656   0.000  0.00  0.00    +0.000 A 
ATOM     16  C   UNL     1      13.525   0.170   0.000  0.00  0.00    +0.000 A 
ATOM     17  C   UNL     1      12.810  -1.068   0.000  0.00  0.00    +0.000 A 
ATOM     18  C   UNL     1      13.525  -0.656   0.000  0.00  0.00    +0.000 A 
ATOM     19  C   UNL     1      14.262   0.611   0.000  0.00  0.00    +0.000 A 
ATOM     20  C   UNL     1      15.010  -0.673   0.000  0.00  0.00    +0.000 A 
ATOM     21  C   UNL     1      15.010   0.187   0.000  0.00  0.00    +0.000 A 
BRANCH  20  22
ATOM     22  C   UNL     1      15.723  -1.088   0.000  0.00  0.00    +0.000 A 
ATOM     23  C   UNL     1      17.148  -1.919   0.000  0.00  0.00    +0.000 A 
ATOM     24  C   UNL     1      15.719  -1.913   0.000  0.00  0.00    +0.000 A 
ATOM     25  C   UNL     1      16.432  -2.328   0.000  0.00  0.00    +0.000 A 
ATOM     26  C   UNL     1      16.439  -0.678   0.000  0.00  0.00    +0.000 A 
ATOM     27  C   UNL     1      17.151  -1.093   0.000  0.00  0.00    +0.000 A 
BRANCH  25  28
ATOM     28  O   UNL     1      16.429  -3.153   0.000  0.00  0.00    +0.000 OA
ATOM     29  C   UNL     1      17.142  -3.568   0.000  0.00  0.00    +0.000 C 
ENDBRANCH  25  28
BRANCH  23  30
ATOM     30  O   UNL     1      17.861  -2.334   0.000  0.00  0.00    +0.000 OA
BRANCH  30  39
ATOM     31  O   UNL     1      18.580  -1.099   0.000  0.00  0.00    +0.000 OA
ATOM     32  O   UNL     1      20.719  -2.345   0.000  0.00  0.00    +0.000 OA
ATOM     33  O   UNL     1      20.725  -0.695   0.000  0.00  0.00    +0.000 OA
ATOM     34  O   UNL     1      19.287  -3.164   0.000  0.00  0.00    +0.000 OA
ATOM     35  C   UNL     1      20.006  -1.929   0.000  0.00  0.00    +0.000 C 
ATOM     36  C   UNL     1      20.009  -1.105   0.000  0.00  0.00    +0.000 C 
ATOM     37  C   UNL     1      19.290  -2.339   0.000  0.00  0.00    +0.000 C 
ATOM     38  C   UNL     1      19.297  -0.689   0.000  0.00  0.00    +0.000 C 
ATOM     39  C   UNL     1      18.577  -1.924   0.000  0.00  0.00    +0.000 C 
BRANCH  38  41
ATOM     40  O   UNL     1      20.016   0.545   0.000  0.00  0.00    +0.000 OA
ATOM     41  C   UNL     1      19.300   0.136   0.000  0.00  0.00    +0.000 C 
ENDBRANCH  38  41
ENDBRANCH  30  39
ENDBRANCH  23  30
ENDBRANCH  20  22
ENDBRANCH   6  13
BRANCH   8  43
ATOM     42  O   UNL     1       9.952   3.057   0.000  0.00  0.00    +0.000 OA
ATOM     43  C   UNL     1      10.667   2.644   0.000  0.00  0.00    +0.000 C 
ENDBRANCH   8  43
BRANCH   4  44
ATOM     44  O   UNL     1      10.667  -0.656   0.000  0.00  0.00    +0.000 OA
BRANCH  44  49
ATOM     45  O   UNL     1       9.238  -0.656   0.000  0.00  0.00    +0.000 OA
ATOM     46  O   UNL     1      10.667  -2.306   0.000  0.00  0.00    +0.000 OA
ATOM     47  O   UNL     1       9.238  -3.131   0.000  0.00  0.00    +0.000 OA
ATOM     48  O   UNL     1       7.809  -2.306   0.000  0.00  0.00    +0.000 OA
ATOM     49  C   UNL     1       9.952  -1.068   0.000  0.00  0.00    +0.000 C 
ATOM     50  C   UNL     1       9.952  -1.893   0.000  0.00  0.00    +0.000 C 
ATOM     51  C   UNL     1       9.238  -2.306   0.000  0.00  0.00    +0.000 C 
ATOM     52  C   UNL     1       8.523  -1.893   0.000  0.00  0.00    +0.000 C 
ATOM     53  C   UNL     1       8.523  -1.068   0.000  0.00  0.00    +0.000 C 
BRANCH  53  54
ATOM     54  C   UNL     1       7.809  -0.656   0.000  0.00  0.00    +0.000 C 
BRANCH  54  55
ATOM     55  O   UNL     1       7.094  -1.068   0.000  0.00  0.00    +0.000 OA
BRANCH  55  57
ATOM     56  O   UNL     1       6.380   0.170   0.000  0.00  0.00    +0.000 OA
ATOM     57  C   UNL     1       6.380  -0.656   0.000  0.00  0.00    +0.000 C 
BRANCH  57  58
ATOM     58  C   UNL     1       5.665  -1.068   0.000  0.00  0.00    +0.000 C 
ATOM     59  C   UNL     1       4.951  -0.656   0.000  0.00  0.00    +0.000 C 
BRANCH  59  61
ATOM     60  O   UNL     1       2.093  -2.306   0.000  0.00  0.00    +0.000 OA
ATOM     61  C   UNL     1       4.236  -1.068   0.000  0.00  0.00    +0.000 A 
ATOM     62  C   UNL     1       4.236  -1.893   0.000  0.00  0.00    +0.000 A 
ATOM     63  C   UNL     1       3.522  -0.656   0.000  0.00  0.00    +0.000 A 
ATOM     64  C   UNL     1       3.522  -2.306   0.000  0.00  0.00    +0.000 A 
ATOM     65  C   UNL     1       2.808  -1.068   0.000  0.00  0.00    +0.000 A 
ATOM     66  C   UNL     1       2.808  -1.893   0.000  0.00  0.00    +0.000 A 
BRANCH  64  67
ATOM     67  O   UNL     1       3.522  -3.131   0.000  0.00  0.00    +0.000 OA
ATOM     68  C   UNL     1       2.808  -3.543   0.000  0.00  0.00    +0.000 C 
ENDBRANCH  64  67
ENDBRANCH  59  61
ENDBRANCH  57  58
ENDBRANCH  55  57
ENDBRANCH  54  55
ENDBRANCH  53  54
ENDBRANCH  44  49
ENDBRANCH   4  44
TORSDOF 15
