REMARK  Name = 131751171
REMARK  16 active torsions:
REMARK  status: ('A' for Active; 'I' for Inactive)
REMARK    1  A    between atoms: O_1  and  C_25
REMARK    2  A    between atoms: O_1  and  C_30
REMARK    3  A    between atoms: O_4  and  C_34
REMARK    4  A    between atoms: O_4  and  C_35
REMARK    5  A    between atoms: O_6  and  C_32
REMARK    6  A    between atoms: O_6  and  C_42
REMARK    7  A    between atoms: O_11  and  C_36
REMARK    8  A    between atoms: O_11  and  C_45
REMARK    9  A    between atoms: O_20  and  C_54
REMARK   10  A    between atoms: O_22  and  C_57
REMARK   11  A    between atoms: C_28  and  C_34
REMARK   12  A    between atoms: C_29  and  C_38
REMARK   13  A    between atoms: C_40  and  C_41
REMARK   14  A    between atoms: C_43  and  C_47
REMARK   15  A    between atoms: C_45  and  C_49
REMARK   16  A    between atoms: C_56  and  C_60
REMARK                            x       y       z     vdW  Elec       q    Type
REMARK                         _______ _______ _______ _____ _____    ______ ____
ROOT
ATOM      1  O   UNL     1       7.366   0.797   0.000  0.00  0.00    +0.000 OA
ATOM      2  O   UNL     1       7.366  -1.678   0.000  0.00  0.00    +0.000 OA
ATOM      3  O   UNL     1       5.937  -0.853   0.000  0.00  0.00    +0.000 OA
ATOM      4  C   UNL     1       8.080  -0.440   0.000  0.00  0.00    +0.000 C 
ATOM      5  C   UNL     1       7.366  -0.853   0.000  0.00  0.00    +0.000 C 
ATOM      6  C   UNL     1       6.651  -0.440   0.000  0.00  0.00    +0.000 C 
ATOM      7  C   UNL     1       6.651   0.385   0.000  0.00  0.00    +0.000 C 
ATOM      8  C   UNL     1       8.080   0.385   0.000  0.00  0.00    +0.000 C 
ENDROOT
BRANCH   8   9
ATOM      9  O   UNL     1       8.795   0.797   0.000  0.00  0.00    +0.000 OA
BRANCH   9  14
ATOM     10  O   UNL     1       9.509   2.860   0.000  0.00  0.00    +0.000 OA
ATOM     11  O   UNL     1       7.366   1.622   0.000  0.00  0.00    +0.000 OA
ATOM     12  O   UNL     1       6.620   2.857   0.000  0.00  0.00    +0.000 OA
ATOM     13  O   UNL     1       8.070   5.392   0.000  0.00  0.00    +0.000 OA
ATOM     14  C   UNL     1       8.795   1.622   0.000  0.00  0.00    +0.000 A 
ATOM     15  C   UNL     1       9.509   2.035   0.000  0.00  0.00    +0.000 A 
ATOM     16  C   UNL     1       8.080   2.035   0.000  0.00  0.00    +0.000 A 
ATOM     17  C   UNL     1       8.080   2.860   0.000  0.00  0.00    +0.000 A 
ATOM     18  C   UNL     1       8.795   3.272   0.000  0.00  0.00    +0.000 A 
ATOM     19  C   UNL     1       7.330   3.278   0.000  0.00  0.00    +0.000 A 
ATOM     20  C   UNL     1       8.808   4.131   0.000  0.00  0.00    +0.000 A 
ATOM     21  C   UNL     1       7.323   4.137   0.000  0.00  0.00    +0.000 A 
ATOM     22  C   UNL     1       8.067   4.567   0.000  0.00  0.00    +0.000 A 
BRANCH  15  24
ATOM     23  O   UNL     1      12.367   0.385   0.000  0.00  0.00    +0.000 OA
ATOM     24  C   UNL     1      10.224   1.622   0.000  0.00  0.00    +0.000 A 
ATOM     25  C   UNL     1      10.938   2.035   0.000  0.00  0.00    +0.000 A 
ATOM     26  C   UNL     1      10.224   0.797   0.000  0.00  0.00    +0.000 A 
ATOM     27  C   UNL     1      11.653   1.622   0.000  0.00  0.00    +0.000 A 
ATOM     28  C   UNL     1      10.938   0.385   0.000  0.00  0.00    +0.000 A 
ATOM     29  C   UNL     1      11.653   0.797   0.000  0.00  0.00    +0.000 A 
BRANCH  27  30
ATOM     30  O   UNL     1      12.367   2.035   0.000  0.00  0.00    +0.000 OA
ATOM     31  C   UNL     1      12.367   2.860   0.000  0.00  0.00    +0.000 C 
ENDBRANCH  27  30
ENDBRANCH  15  24
BRANCH  21  32
ATOM     32  O   UNL     1       6.607   4.547   0.000  0.00  0.00    +0.000 OA
ATOM     33  C   UNL     1       6.604   5.372   0.000  0.00  0.00    +0.000 C 
ENDBRANCH  21  32
ENDBRANCH   9  14
ENDBRANCH   8   9
BRANCH   7  34
ATOM     34  C   UNL     1       5.937   0.797   0.000  0.00  0.00    +0.000 C 
BRANCH  34  35
ATOM     35  O   UNL     1       5.222   0.385   0.000  0.00  0.00    +0.000 OA
BRANCH  35  39
ATOM     36  O   UNL     1       4.508   1.622   0.000  0.00  0.00    +0.000 OA
ATOM     37  O   UNL     1       2.365   0.385   0.000  0.00  0.00    +0.000 OA
ATOM     38  O   UNL     1       2.365   2.035   0.000  0.00  0.00    +0.000 OA
ATOM     39  C   UNL     1       4.508   0.797   0.000  0.00  0.00    +0.000 C 
ATOM     40  C   UNL     1       3.793   0.385   0.000  0.00  0.00    +0.000 C 
ATOM     41  C   UNL     1       3.079   0.797   0.000  0.00  0.00    +0.000 C 
ATOM     42  C   UNL     1       3.079   1.622   0.000  0.00  0.00    +0.000 C 
ATOM     43  C   UNL     1       3.793   2.035   0.000  0.00  0.00    +0.000 C 
BRANCH  43  45
ATOM     44  O   UNL     1       4.508   3.272   0.000  0.00  0.00    +0.000 OA
ATOM     45  C   UNL     1       3.793   2.860   0.000  0.00  0.00    +0.000 C 
ENDBRANCH  43  45
BRANCH  40  46
ATOM     46  O   UNL     1       3.793  -0.440   0.000  0.00  0.00    +0.000 OA
BRANCH  46  48
ATOM     47  O   UNL     1       2.365  -0.440   0.000  0.00  0.00    +0.000 OA
ATOM     48  C   UNL     1       3.079  -0.853   0.000  0.00  0.00    +0.000 C 
BRANCH  48  49
ATOM     49  C   UNL     1       3.079  -1.678   0.000  0.00  0.00    +0.000 C 
ATOM     50  C   UNL     1       2.365  -2.090   0.000  0.00  0.00    +0.000 C 
BRANCH  50  52
ATOM     51  O   UNL     1       2.365  -5.390   0.000  0.00  0.00    +0.000 OA
ATOM     52  C   UNL     1       2.365  -2.915   0.000  0.00  0.00    +0.000 A 
ATOM     53  C   UNL     1       1.650  -3.328   0.000  0.00  0.00    +0.000 A 
ATOM     54  C   UNL     1       3.079  -3.328   0.000  0.00  0.00    +0.000 A 
ATOM     55  C   UNL     1       1.650  -4.153   0.000  0.00  0.00    +0.000 A 
ATOM     56  C   UNL     1       3.079  -4.153   0.000  0.00  0.00    +0.000 A 
ATOM     57  C   UNL     1       2.365  -4.565   0.000  0.00  0.00    +0.000 A 
ENDBRANCH  50  52
ENDBRANCH  48  49
ENDBRANCH  46  48
ENDBRANCH  40  46
ENDBRANCH  35  39
ENDBRANCH  34  35
ENDBRANCH   7  34
BRANCH   4  58
ATOM     58  O   UNL     1       8.795  -0.853   0.000  0.00  0.00    +0.000 OA
BRANCH  58  63
ATOM     59  O   UNL     1       8.127  -2.163   0.000  0.00  0.00    +0.000 OA
ATOM     60  O   UNL     1       9.992  -3.202   0.000  0.00  0.00    +0.000 OA
ATOM     61  O   UNL     1      10.247  -1.908   0.000  0.00  0.00    +0.000 OA
ATOM     62  C   UNL     1       9.207  -2.947   0.000  0.00  0.00    +0.000 C 
ATOM     63  C   UNL     1       8.795  -1.678   0.000  0.00  0.00    +0.000 C 
ATOM     64  C   UNL     1       9.462  -2.163   0.000  0.00  0.00    +0.000 C 
ATOM     65  C   UNL     1       8.382  -2.947   0.000  0.00  0.00    +0.000 C 
BRANCH  62  67
ATOM     66  O   UNL     1       9.922  -4.185   0.000  0.00  0.00    +0.000 OA
ATOM     67  C   UNL     1       9.207  -3.772   0.000  0.00  0.00    +0.000 C 
ENDBRANCH  62  67
ENDBRANCH  58  63
ENDBRANCH   4  58
TORSDOF 16
