REMARK  Name = 44257914
REMARK  5 active torsions:
REMARK  status: ('A' for Active; 'I' for Inactive)
REMARK    1  A    between atoms: O_2  and  C_13
REMARK    2  A    between atoms: O_2  and  C_25
REMARK    3  A    between atoms: C_15  and  C_18
REMARK    4  A    between atoms: C_17  and  C_19
REMARK    5  A    between atoms: C_28  and  C_30
REMARK                            x       y       z     vdW  Elec       q    Type
REMARK                         _______ _______ _______ _____ _____    ______ ____
ROOT
ATOM      1  O   UNL     1       6.380   1.584   0.000  0.00  0.00    +0.000 OA
ATOM      2  O   UNL     1       4.951  -0.891   0.000  0.00  0.00    +0.000 OA
ATOM      3  O   UNL     1       7.832  -0.920   0.000  0.00  0.00    +0.000 OA
ATOM      4  O   UNL     1       7.822   1.612   0.000  0.00  0.00    +0.000 OA
ATOM      5  C   UNL     1       5.665   0.346   0.000  0.00  0.00    +0.000 A 
ATOM      6  C   UNL     1       6.380   0.759   0.000  0.00  0.00    +0.000 A 
ATOM      7  C   UNL     1       5.665  -0.479   0.000  0.00  0.00    +0.000 A 
ATOM      8  C   UNL     1       7.094   0.346   0.000  0.00  0.00    +0.000 A 
ATOM      9  C   UNL     1       6.380  -0.891   0.000  0.00  0.00    +0.000 A 
ATOM     10  C   UNL     1       7.094  -0.479   0.000  0.00  0.00    +0.000 A 
ATOM     11  C   UNL     1       7.832   0.787   0.000  0.00  0.00    +0.000 A 
ATOM     12  C   UNL     1       8.579  -0.496   0.000  0.00  0.00    +0.000 A 
ATOM     13  C   UNL     1       8.579   0.363   0.000  0.00  0.00    +0.000 A 
ENDROOT
BRANCH   5  19
ATOM     14  O   UNL     1       4.236   0.346   0.000  0.00  0.00    +0.000 OA
ATOM     15  O   UNL     1       4.236   2.821   0.000  0.00  0.00    +0.000 OA
ATOM     16  O   UNL     1       2.808   1.996   0.000  0.00  0.00    +0.000 OA
ATOM     17  C   UNL     1       4.951   1.584   0.000  0.00  0.00    +0.000 C 
ATOM     18  C   UNL     1       4.236   1.996   0.000  0.00  0.00    +0.000 C 
ATOM     19  C   UNL     1       4.951   0.759   0.000  0.00  0.00    +0.000 C 
ATOM     20  C   UNL     1       3.522   1.584   0.000  0.00  0.00    +0.000 C 
ATOM     21  C   UNL     1       3.522   0.759   0.000  0.00  0.00    +0.000 C 
BRANCH  21  23
ATOM     22  O   UNL     1       2.093   0.759   0.000  0.00  0.00    +0.000 OA
ATOM     23  C   UNL     1       2.808   0.346   0.000  0.00  0.00    +0.000 C 
ENDBRANCH  21  23
BRANCH  17  24
ATOM     24  O   UNL     1       5.665   1.996   0.000  0.00  0.00    +0.000 OA
BRANCH  24  26
ATOM     25  O   UNL     1       4.951   3.234   0.000  0.00  0.00    +0.000 OA
ATOM     26  C   UNL     1       5.665   2.821   0.000  0.00  0.00    +0.000 C 
ATOM     27  C   UNL     1       6.380   3.234   0.000  0.00  0.00    +0.000 C 
ENDBRANCH  24  26
ENDBRANCH  17  24
ENDBRANCH   5  19
BRANCH  12  30
ATOM     28  O   UNL     1       9.999  -2.976   0.000  0.00  0.00    +0.000 OA
ATOM     29  O   UNL     1      11.431  -2.157   0.000  0.00  0.00    +0.000 OA
ATOM     30  C   UNL     1       9.292  -0.911   0.000  0.00  0.00    +0.000 A 
ATOM     31  C   UNL     1       9.289  -1.736   0.000  0.00  0.00    +0.000 A 
ATOM     32  C   UNL     1      10.008  -0.501   0.000  0.00  0.00    +0.000 A 
ATOM     33  C   UNL     1      10.002  -2.151   0.000  0.00  0.00    +0.000 A 
ATOM     34  C   UNL     1      10.721  -0.917   0.000  0.00  0.00    +0.000 A 
ATOM     35  C   UNL     1      10.718  -1.742   0.000  0.00  0.00    +0.000 A 
ENDBRANCH  12  30
TORSDOF 5
