REMARK  Name = 100943914
REMARK  16 active torsions:
REMARK  status: ('A' for Active; 'I' for Inactive)
REMARK    1  A    between atoms: O_1  and  C_28
REMARK    2  A    between atoms: O_1  and  C_29
REMARK    3  A    between atoms: O_2  and  C_26
REMARK    4  A    between atoms: O_2  and  C_32
REMARK    5  A    between atoms: O_6  and  C_27
REMARK    6  A    between atoms: O_6  and  C_43
REMARK    7  A    between atoms: O_9  and  C_34
REMARK    8  A    between atoms: O_9  and  C_44
REMARK    9  A    between atoms: O_20  and  C_56
REMARK   10  A    between atoms: O_22  and  C_59
REMARK   11  A    between atoms: O_24  and  C_64
REMARK   12  A    between atoms: C_36  and  C_41
REMARK   13  A    between atoms: C_40  and  C_42
REMARK   14  A    between atoms: C_43  and  C_47
REMARK   15  A    between atoms: C_45  and  C_49
REMARK   16  A    between atoms: C_51  and  C_57
REMARK                            x       y       z     vdW  Elec       q    Type
REMARK                         _______ _______ _______ _____ _____    ______ ____
ROOT
ATOM      1  O   UNL     1       4.236   1.416   0.000  0.00  0.00    +0.000 OA
ATOM      2  O   UNL     1       4.236  -1.059   0.000  0.00  0.00    +0.000 OA
ATOM      3  O   UNL     1       2.808  -0.234   0.000  0.00  0.00    +0.000 OA
ATOM      4  C   UNL     1       4.951   0.178   0.000  0.00  0.00    +0.000 C 
ATOM      5  C   UNL     1       4.236  -0.234   0.000  0.00  0.00    +0.000 C 
ATOM      6  C   UNL     1       3.522   0.178   0.000  0.00  0.00    +0.000 C 
ATOM      7  C   UNL     1       4.951   1.004   0.000  0.00  0.00    +0.000 C 
ATOM      8  C   UNL     1       3.522   1.004   0.000  0.00  0.00    +0.000 C 
ENDROOT
BRANCH   8  10
ATOM      9  O   UNL     1       2.093   1.004   0.000  0.00  0.00    +0.000 OA
ATOM     10  C   UNL     1       2.808   1.416   0.000  0.00  0.00    +0.000 C 
ENDBRANCH   8  10
BRANCH   4  11
ATOM     11  O   UNL     1       5.665  -0.234   0.000  0.00  0.00    +0.000 OA
BRANCH  11  16
ATOM     12  O   UNL     1       4.951  -1.472   0.000  0.00  0.00    +0.000 OA
ATOM     13  O   UNL     1       5.665  -3.534   0.000  0.00  0.00    +0.000 OA
ATOM     14  C   UNL     1       6.380  -2.296   0.000  0.00  0.00    +0.000 C 
ATOM     15  C   UNL     1       6.380  -1.472   0.000  0.00  0.00    +0.000 C 
ATOM     16  C   UNL     1       5.665  -1.059   0.000  0.00  0.00    +0.000 C 
ATOM     17  C   UNL     1       5.665  -2.709   0.000  0.00  0.00    +0.000 C 
ATOM     18  C   UNL     1       4.951  -2.296   0.000  0.00  0.00    +0.000 C 
BRANCH  15  19
ATOM     19  O   UNL     1       7.094  -1.059   0.000  0.00  0.00    +0.000 OA
BRANCH  19  21
ATOM     20  O   UNL     1       7.809  -2.296   0.000  0.00  0.00    +0.000 OA
ATOM     21  C   UNL     1       7.809  -1.472   0.000  0.00  0.00    +0.000 C 
BRANCH  21  22
ATOM     22  C   UNL     1       8.523  -1.059   0.000  0.00  0.00    +0.000 C 
ATOM     23  C   UNL     1       9.238  -1.472   0.000  0.00  0.00    +0.000 C 
BRANCH  23  25
ATOM     24  O   UNL     1      12.096   0.178   0.000  0.00  0.00    +0.000 OA
ATOM     25  C   UNL     1       9.952  -1.059   0.000  0.00  0.00    +0.000 A 
ATOM     26  C   UNL     1      10.667  -1.472   0.000  0.00  0.00    +0.000 A 
ATOM     27  C   UNL     1       9.952  -0.234   0.000  0.00  0.00    +0.000 A 
ATOM     28  C   UNL     1      11.381  -1.059   0.000  0.00  0.00    +0.000 A 
ATOM     29  C   UNL     1      10.667   0.178   0.000  0.00  0.00    +0.000 A 
ATOM     30  C   UNL     1      11.381  -0.234   0.000  0.00  0.00    +0.000 A 
BRANCH  28  31
ATOM     31  O   UNL     1      12.096  -1.472   0.000  0.00  0.00    +0.000 OA
ATOM     32  C   UNL     1      12.096  -2.296   0.000  0.00  0.00    +0.000 C 
ENDBRANCH  28  31
ENDBRANCH  23  25
ENDBRANCH  21  22
ENDBRANCH  19  21
ENDBRANCH  15  19
BRANCH  14  33
ATOM     33  O   UNL     1       7.094  -2.709   0.000  0.00  0.00    +0.000 OA
BRANCH  33  38
ATOM     34  O   UNL     1       6.380  -3.946   0.000  0.00  0.00    +0.000 OA
ATOM     35  O   UNL     1       8.523  -3.534   0.000  0.00  0.00    +0.000 OA
ATOM     36  O   UNL     1       8.523  -5.184   0.000  0.00  0.00    +0.000 OA
ATOM     37  O   UNL     1       7.094  -6.009   0.000  0.00  0.00    +0.000 OA
ATOM     38  C   UNL     1       7.094  -3.534   0.000  0.00  0.00    +0.000 C 
ATOM     39  C   UNL     1       7.809  -3.946   0.000  0.00  0.00    +0.000 C 
ATOM     40  C   UNL     1       7.809  -4.771   0.000  0.00  0.00    +0.000 C 
ATOM     41  C   UNL     1       7.094  -5.184   0.000  0.00  0.00    +0.000 C 
ATOM     42  C   UNL     1       6.380  -4.771   0.000  0.00  0.00    +0.000 C 
BRANCH  42  44
ATOM     43  O   UNL     1       5.665  -6.009   0.000  0.00  0.00    +0.000 OA
ATOM     44  C   UNL     1       5.665  -5.184   0.000  0.00  0.00    +0.000 C 
ENDBRANCH  42  44
ENDBRANCH  33  38
ENDBRANCH  14  33
ENDBRANCH  11  16
ENDBRANCH   4  11
BRANCH   7  45
ATOM     45  O   UNL     1       5.665   1.416   0.000  0.00  0.00    +0.000 OA
BRANCH  45  50
ATOM     46  O   UNL     1       6.380   3.478   0.000  0.00  0.00    +0.000 OA
ATOM     47  O   UNL     1       4.236   2.241   0.000  0.00  0.00    +0.000 OA
ATOM     48  O   UNL     1       3.490   3.476   0.000  0.00  0.00    +0.000 OA
ATOM     49  O   UNL     1       4.941   6.011   0.000  0.00  0.00    +0.000 OA
ATOM     50  C   UNL     1       5.665   2.241   0.000  0.00  0.00    +0.000 A 
ATOM     51  C   UNL     1       6.380   2.654   0.000  0.00  0.00    +0.000 A 
ATOM     52  C   UNL     1       4.951   2.654   0.000  0.00  0.00    +0.000 A 
ATOM     53  C   UNL     1       4.951   3.478   0.000  0.00  0.00    +0.000 A 
ATOM     54  C   UNL     1       5.665   3.891   0.000  0.00  0.00    +0.000 A 
ATOM     55  C   UNL     1       4.200   3.897   0.000  0.00  0.00    +0.000 A 
ATOM     56  C   UNL     1       5.679   4.750   0.000  0.00  0.00    +0.000 A 
ATOM     57  C   UNL     1       4.194   4.756   0.000  0.00  0.00    +0.000 A 
ATOM     58  C   UNL     1       4.938   5.186   0.000  0.00  0.00    +0.000 A 
BRANCH  51  60
ATOM     59  O   UNL     1       9.238   1.004   0.000  0.00  0.00    +0.000 OA
ATOM     60  C   UNL     1       7.094   2.241   0.000  0.00  0.00    +0.000 A 
ATOM     61  C   UNL     1       7.809   2.654   0.000  0.00  0.00    +0.000 A 
ATOM     62  C   UNL     1       7.094   1.416   0.000  0.00  0.00    +0.000 A 
ATOM     63  C   UNL     1       8.523   2.241   0.000  0.00  0.00    +0.000 A 
ATOM     64  C   UNL     1       7.809   1.004   0.000  0.00  0.00    +0.000 A 
ATOM     65  C   UNL     1       8.523   1.416   0.000  0.00  0.00    +0.000 A 
BRANCH  63  66
ATOM     66  O   UNL     1       9.238   2.654   0.000  0.00  0.00    +0.000 OA
ATOM     67  C   UNL     1       9.238   3.478   0.000  0.00  0.00    +0.000 C 
ENDBRANCH  63  66
ENDBRANCH  51  60
BRANCH  57  68
ATOM     68  O   UNL     1       3.478   5.166   0.000  0.00  0.00    +0.000 OA
ATOM     69  C   UNL     1       3.474   5.991   0.000  0.00  0.00    +0.000 C 
ENDBRANCH  57  68
ENDBRANCH  45  50
ENDBRANCH   7  45
TORSDOF 16
