REMARK  Name = 74819383
REMARK  4 active torsions:
REMARK  status: ('A' for Active; 'I' for Inactive)
REMARK    1  A    between atoms: O_2  and  C_13
REMARK    2  A    between atoms: O_2  and  C_17
REMARK    3  A    between atoms: O_9  and  C_29
REMARK    4  A    between atoms: C_15  and  C_22
REMARK                            x       y       z     vdW  Elec       q    Type
REMARK                         _______ _______ _______ _____ _____    ______ ____
ROOT
ATOM      1  O   UNL     1       7.864  -0.763   0.000  0.00  0.00    +0.000 OA
ATOM      2  O   UNL     1       6.422   1.740   0.000  0.00  0.00    +0.000 OA
ATOM      3  O   UNL     1       7.864   1.712   0.000  0.00  0.00    +0.000 OA
ATOM      4  C   UNL     1       8.579  -0.351   0.000  0.00  0.00    +0.000 C 
ATOM      5  C   UNL     1       8.579   0.474   0.000  0.00  0.00    +0.000 C 
ATOM      6  C   UNL     1       5.665  -0.368   0.000  0.00  0.00    +0.000 A 
ATOM      7  C   UNL     1       7.150  -0.351   0.000  0.00  0.00    +0.000 A 
ATOM      8  C   UNL     1       7.150   0.474   0.000  0.00  0.00    +0.000 A 
ATOM      9  C   UNL     1       7.864   0.886   0.000  0.00  0.00    +0.000 C 
ATOM     10  C   UNL     1       6.412  -0.792   0.000  0.00  0.00    +0.000 A 
ATOM     11  C   UNL     1       6.412   0.915   0.000  0.00  0.00    +0.000 A 
ATOM     12  C   UNL     1       5.665   0.491   0.000  0.00  0.00    +0.000 A 
ENDROOT
BRANCH   4  13
ATOM     13  C   UNL     1       9.293  -0.763   0.000  0.00  0.00    +0.000 A 
ATOM     14  C   UNL     1      10.008  -0.351   0.000  0.00  0.00    +0.000 A 
ATOM     15  C   UNL     1       9.293  -1.589   0.000  0.00  0.00    +0.000 A 
ATOM     16  C   UNL     1      10.722  -0.763   0.000  0.00  0.00    +0.000 A 
ATOM     17  C   UNL     1      10.008  -2.001   0.000  0.00  0.00    +0.000 A 
ATOM     18  C   UNL     1      10.722  -1.589   0.000  0.00  0.00    +0.000 A 
BRANCH  18  19
ATOM     19  O   UNL     1      11.437  -2.001   0.000  0.00  0.00    +0.000 OA
ATOM     20  C   UNL     1      12.151  -1.589   0.000  0.00  0.00    +0.000 C 
ENDBRANCH  18  19
ENDBRANCH   4  13
BRANCH   6  21
ATOM     21  O   UNL     1       4.952  -0.783   0.000  0.00  0.00    +0.000 OA
BRANCH  21  29
ATOM     22  O   UNL     1       4.233   0.451   0.000  0.00  0.00    +0.000 OA
ATOM     23  O   UNL     1       2.094  -0.794   0.000  0.00  0.00    +0.000 OA
ATOM     24  O   UNL     1       3.526  -1.614   0.000  0.00  0.00    +0.000 OA
ATOM     25  O   UNL     1       2.088   0.856   0.000  0.00  0.00    +0.000 OA
ATOM     26  C   UNL     1       2.807  -0.379   0.000  0.00  0.00    +0.000 C 
ATOM     27  C   UNL     1       3.523  -0.789   0.000  0.00  0.00    +0.000 C 
ATOM     28  C   UNL     1       2.804   0.446   0.000  0.00  0.00    +0.000 C 
ATOM     29  C   UNL     1       4.236  -0.374   0.000  0.00  0.00    +0.000 C 
ATOM     30  C   UNL     1       3.517   0.861   0.000  0.00  0.00    +0.000 C 
ENDBRANCH  21  29
ENDBRANCH   6  21
TORSDOF 4
