REMARK  Name = 73813320
REMARK  7 active torsions:
REMARK  status: ('A' for Active; 'I' for Inactive)
REMARK    1  A    between atoms: O_3  and  C_25
REMARK    2  A    between atoms: O_3  and  C_30
REMARK    3  A    between atoms: O_4  and  C_26
REMARK    4  A    between atoms: O_4  and  C_32
REMARK    5  A    between atoms: C_23  and  C_28
REMARK    6  A    between atoms: C_24  and  C_29
REMARK    7  A    between atoms: C_27  and  C_33
REMARK                            x       y       z     vdW  Elec       q    Type
REMARK                         _______ _______ _______ _____ _____    ______ ____
ROOT
ATOM      1  C   UNL     1       6.414  -0.855   0.000  0.00  0.00    +0.000 A 
ATOM      2  C   UNL     1       7.129  -0.442   0.000  0.00  0.00    +0.000 A 
ATOM      3  C   UNL     1       5.700   0.383   0.000  0.00  0.00    +0.000 A 
ATOM      4  C   UNL     1       5.700  -0.442   0.000  0.00  0.00    +0.000 A 
ATOM      5  C   UNL     1       7.129   0.383   0.000  0.00  0.00    +0.000 A 
ATOM      6  C   UNL     1       6.414   0.795   0.000  0.00  0.00    +0.000 A 
ENDROOT
BRANCH   3  11
ATOM      7  O   UNL     1       4.985   1.621   0.000  0.00  0.00    +0.000 OA
ATOM      8  O   UNL     1       4.271  -0.442   0.000  0.00  0.00    +0.000 OA
ATOM      9  O   UNL     1       2.096   1.618   0.000  0.00  0.00    +0.000 OA
ATOM     10  O   UNL     1       3.546   4.153   0.000  0.00  0.00    +0.000 OA
ATOM     11  C   UNL     1       4.985   0.795   0.000  0.00  0.00    +0.000 C 
ATOM     12  C   UNL     1       4.271   0.383   0.000  0.00  0.00    +0.000 C 
ATOM     13  C   UNL     1       3.556   0.795   0.000  0.00  0.00    +0.000 C 
ATOM     14  C   UNL     1       3.556   1.621   0.000  0.00  0.00    +0.000 A 
ATOM     15  C   UNL     1       4.271   2.033   0.000  0.00  0.00    +0.000 A 
ATOM     16  C   UNL     1       2.806   2.039   0.000  0.00  0.00    +0.000 A 
ATOM     17  C   UNL     1       4.284   2.892   0.000  0.00  0.00    +0.000 A 
ATOM     18  C   UNL     1       2.799   2.898   0.000  0.00  0.00    +0.000 A 
ATOM     19  C   UNL     1       3.543   3.328   0.000  0.00  0.00    +0.000 A 
ENDBRANCH   3  11
BRANCH   1  20
ATOM     20  O   UNL     1       6.414  -1.679   0.000  0.00  0.00    +0.000 OA
BRANCH  20  29
ATOM     21  O   UNL     1       4.985  -1.679   0.000  0.00  0.00    +0.000 OA
ATOM     22  O   UNL     1       4.985  -4.154   0.000  0.00  0.00    +0.000 OA
ATOM     23  O   UNL     1       3.556  -3.329   0.000  0.00  0.00    +0.000 OA
ATOM     24  O   UNL     1       6.414  -3.329   0.000  0.00  0.00    +0.000 OA
ATOM     25  C   UNL     1       4.985  -3.329   0.000  0.00  0.00    +0.000 C 
ATOM     26  C   UNL     1       4.271  -2.917   0.000  0.00  0.00    +0.000 C 
ATOM     27  C   UNL     1       5.700  -2.917   0.000  0.00  0.00    +0.000 C 
ATOM     28  C   UNL     1       4.271  -2.092   0.000  0.00  0.00    +0.000 C 
ATOM     29  C   UNL     1       5.700  -2.092   0.000  0.00  0.00    +0.000 C 
BRANCH  28  31
ATOM     30  O   UNL     1       2.842  -2.092   0.000  0.00  0.00    +0.000 OA
ATOM     31  C   UNL     1       3.556  -1.679   0.000  0.00  0.00    +0.000 C 
ENDBRANCH  28  31
ENDBRANCH  20  29
ENDBRANCH   1  20
BRANCH   2  32
ATOM     32  O   UNL     1       7.843  -0.855   0.000  0.00  0.00    +0.000 OA
BRANCH  32  41
ATOM     33  O   UNL     1       8.558   0.383   0.000  0.00  0.00    +0.000 OA
ATOM     34  O   UNL     1      10.701  -0.855   0.000  0.00  0.00    +0.000 OA
ATOM     35  O   UNL     1      10.701   0.795   0.000  0.00  0.00    +0.000 OA
ATOM     36  O   UNL     1       9.272  -1.679   0.000  0.00  0.00    +0.000 OA
ATOM     37  C   UNL     1       9.986  -0.442   0.000  0.00  0.00    +0.000 C 
ATOM     38  C   UNL     1       9.986   0.383   0.000  0.00  0.00    +0.000 C 
ATOM     39  C   UNL     1       9.272  -0.855   0.000  0.00  0.00    +0.000 C 
ATOM     40  C   UNL     1       9.272   0.795   0.000  0.00  0.00    +0.000 C 
ATOM     41  C   UNL     1       8.558  -0.442   0.000  0.00  0.00    +0.000 C 
BRANCH  40  43
ATOM     42  O   UNL     1       9.986   2.033   0.000  0.00  0.00    +0.000 OA
ATOM     43  C   UNL     1       9.272   1.621   0.000  0.00  0.00    +0.000 C 
ENDBRANCH  40  43
ENDBRANCH  32  41
ENDBRANCH   2  32
TORSDOF 7
