REMARK  Name = 74977634
REMARK  7 active torsions:
REMARK  status: ('A' for Active; 'I' for Inactive)
REMARK    1  A    between atoms: O_3  and  C_32
REMARK    2  A    between atoms: O_3  and  C_35
REMARK    3  A    between atoms: C_21  and  C_25
REMARK    4  A    between atoms: C_22  and  C_28
REMARK    5  A    between atoms: C_31  and  C_42
REMARK    6  A    between atoms: C_33  and  C_43
REMARK    7  A    between atoms: C_46  and  C_48
REMARK                            x       y       z     vdW  Elec       q    Type
REMARK                         _______ _______ _______ _____ _____    ______ ____
ROOT
ATOM      1  O   UNL     1       7.946   0.986   0.000  0.00  0.00    +0.000 OA
ATOM      2  O   UNL     1       5.725   2.842   0.000  0.00  0.00    +0.000 OA
ATOM      3  O   UNL     1       7.071   3.362   0.000  0.00  0.00    +0.000 OA
ATOM      4  C   UNL     1       6.572   0.516   0.000  0.00  0.00    +0.000 A 
ATOM      5  C   UNL     1       5.477   1.434   0.000  0.00  0.00    +0.000 A 
ATOM      6  C   UNL     1       5.759   0.659   0.000  0.00  0.00    +0.000 A 
ATOM      7  C   UNL     1       7.102   1.148   0.000  0.00  0.00    +0.000 A 
ATOM      8  C   UNL     1       6.007   2.067   0.000  0.00  0.00    +0.000 A 
ATOM      9  C   UNL     1       6.819   1.923   0.000  0.00  0.00    +0.000 A 
ATOM     10  C   UNL     1       7.362   2.590   0.000  0.00  0.00    +0.000 A 
ATOM     11  C   UNL     1       8.503   1.640   0.000  0.00  0.00    +0.000 A 
ATOM     12  C   UNL     1       8.209   2.447   0.000  0.00  0.00    +0.000 A 
ENDROOT
BRANCH   4  17
ATOM     13  O   UNL     1       6.323  -0.891   0.000  0.00  0.00    +0.000 OA
ATOM     14  O   UNL     1       8.196   0.229   0.000  0.00  0.00    +0.000 OA
ATOM     15  O   UNL     1       8.761  -1.321   0.000  0.00  0.00    +0.000 OA
ATOM     16  O   UNL     1       7.700  -2.585   0.000  0.00  0.00    +0.000 OA
ATOM     17  C   UNL     1       6.854  -0.259   0.000  0.00  0.00    +0.000 C 
ATOM     18  C   UNL     1       7.666  -0.403   0.000  0.00  0.00    +0.000 C 
ATOM     19  C   UNL     1       7.948  -1.178   0.000  0.00  0.00    +0.000 C 
ATOM     20  C   UNL     1       7.418  -1.810   0.000  0.00  0.00    +0.000 C 
ATOM     21  C   UNL     1       6.605  -1.667   0.000  0.00  0.00    +0.000 C 
BRANCH  21  23
ATOM     22  O   UNL     1       6.357  -3.074   0.000  0.00  0.00    +0.000 OA
ATOM     23  C   UNL     1       6.075  -2.299   0.000  0.00  0.00    +0.000 C 
ENDBRANCH  21  23
ENDBRANCH   4  17
BRANCH   5  28
ATOM     24  O   UNL     1       4.134   0.946   0.000  0.00  0.00    +0.000 OA
ATOM     25  O   UNL     1       4.912   2.985   0.000  0.00  0.00    +0.000 OA
ATOM     26  O   UNL     1       3.288   3.272   0.000  0.00  0.00    +0.000 OA
ATOM     27  O   UNL     1       2.227   2.008   0.000  0.00  0.00    +0.000 OA
ATOM     28  C   UNL     1       4.664   1.578   0.000  0.00  0.00    +0.000 C 
ATOM     29  C   UNL     1       4.382   2.353   0.000  0.00  0.00    +0.000 C 
ATOM     30  C   UNL     1       3.570   2.496   0.000  0.00  0.00    +0.000 C 
ATOM     31  C   UNL     1       3.039   1.864   0.000  0.00  0.00    +0.000 C 
ATOM     32  C   UNL     1       3.322   1.089   0.000  0.00  0.00    +0.000 C 
BRANCH  32  34
ATOM     33  O   UNL     1       1.979   0.600   0.000  0.00  0.00    +0.000 OA
ATOM     34  C   UNL     1       2.791   0.457   0.000  0.00  0.00    +0.000 C 
ENDBRANCH  32  34
ENDBRANCH   5  28
BRANCH  11  37
ATOM     35  O   UNL     1      10.685  -0.206   0.000  0.00  0.00    +0.000 OA
ATOM     36  O   UNL     1      11.751   1.054   0.000  0.00  0.00    +0.000 OA
ATOM     37  C   UNL     1       9.315   1.493   0.000  0.00  0.00    +0.000 A 
ATOM     38  C   UNL     1       9.594   0.717   0.000  0.00  0.00    +0.000 A 
ATOM     39  C   UNL     1       9.848   2.123   0.000  0.00  0.00    +0.000 A 
ATOM     40  C   UNL     1      10.406   0.571   0.000  0.00  0.00    +0.000 A 
ATOM     41  C   UNL     1      10.660   1.977   0.000  0.00  0.00    +0.000 A 
ATOM     42  C   UNL     1      10.939   1.200   0.000  0.00  0.00    +0.000 A 
ENDBRANCH  11  37
BRANCH   6  43
ATOM     43  O   UNL     1       5.229   0.027   0.000  0.00  0.00    +0.000 OA
BRANCH  43  48
ATOM     44  O   UNL     1       3.800   0.027   0.000  0.00  0.00    +0.000 OA
ATOM     45  O   UNL     1       5.229  -1.623   0.000  0.00  0.00    +0.000 OA
ATOM     46  O   UNL     1       3.800  -2.448   0.000  0.00  0.00    +0.000 OA
ATOM     47  O   UNL     1       2.371  -1.623   0.000  0.00  0.00    +0.000 OA
ATOM     48  C   UNL     1       4.514  -0.385   0.000  0.00  0.00    +0.000 C 
ATOM     49  C   UNL     1       4.514  -1.210   0.000  0.00  0.00    +0.000 C 
ATOM     50  C   UNL     1       3.800  -1.623   0.000  0.00  0.00    +0.000 C 
ATOM     51  C   UNL     1       3.085  -1.210   0.000  0.00  0.00    +0.000 C 
ATOM     52  C   UNL     1       3.085  -0.385   0.000  0.00  0.00    +0.000 C 
ATOM     53  C   UNL     1       2.371   0.027   0.000  0.00  0.00    +0.000 C 
ENDBRANCH  43  48
ENDBRANCH   6  43
TORSDOF 7
