REMARK  Name = 131751646
REMARK  9 active torsions:
REMARK  status: ('A' for Active; 'I' for Inactive)
REMARK    1  A    between atoms: O_3  and  C_30
REMARK    2  A    between atoms: O_3  and  C_32
REMARK    3  A    between atoms: O_12  and  C_39
REMARK    4  A    between atoms: O_12  and  C_48
REMARK    5  A    between atoms: C_21  and  C_26
REMARK    6  A    between atoms: C_25  and  C_33
REMARK    7  A    between atoms: C_31  and  C_40
REMARK    8  A    between atoms: C_38  and  C_44
REMARK    9  A    between atoms: C_46  and  C_49
REMARK                            x       y       z     vdW  Elec       q    Type
REMARK                         _______ _______ _______ _____ _____    ______ ____
ROOT
ATOM      1  O   UNL     1      10.010  -0.426   0.000  0.00  0.00    +0.000 OA
ATOM      2  O   UNL     1       7.116  -0.420   0.000  0.00  0.00    +0.000 OA
ATOM      3  O   UNL     1       9.314   0.837   0.000  0.00  0.00    +0.000 OA
ATOM      4  C   UNL     1       9.296  -1.664   0.000  0.00  0.00    +0.000 A 
ATOM      5  C   UNL     1       8.581  -2.076   0.000  0.00  0.00    +0.000 A 
ATOM      6  C   UNL     1       9.296  -0.839   0.000  0.00  0.00    +0.000 A 
ATOM      7  C   UNL     1       8.581  -0.426   0.000  0.00  0.00    +0.000 A 
ATOM      8  C   UNL     1       7.867  -1.664   0.000  0.00  0.00    +0.000 A 
ATOM      9  C   UNL     1       7.867  -0.839   0.000  0.00  0.00    +0.000 A 
ATOM     10  C   UNL     1       8.595   0.433   0.000  0.00  0.00    +0.000 A 
ATOM     11  C   UNL     1       7.109   0.439   0.000  0.00  0.00    +0.000 A 
ATOM     12  C   UNL     1       7.854   0.869   0.000  0.00  0.00    +0.000 A 
ENDROOT
BRANCH   4  17
ATOM     13  O   UNL     1      10.725  -1.664   0.000  0.00  0.00    +0.000 OA
ATOM     14  O   UNL     1       9.296  -3.314   0.000  0.00  0.00    +0.000 OA
ATOM     15  O   UNL     1      10.725  -4.139   0.000  0.00  0.00    +0.000 OA
ATOM     16  O   UNL     1      12.154  -3.314   0.000  0.00  0.00    +0.000 OA
ATOM     17  C   UNL     1      10.010  -2.076   0.000  0.00  0.00    +0.000 C 
ATOM     18  C   UNL     1      10.010  -2.901   0.000  0.00  0.00    +0.000 C 
ATOM     19  C   UNL     1      10.725  -3.314   0.000  0.00  0.00    +0.000 C 
ATOM     20  C   UNL     1      11.439  -2.901   0.000  0.00  0.00    +0.000 C 
ATOM     21  C   UNL     1      11.439  -2.076   0.000  0.00  0.00    +0.000 C 
BRANCH  21  23
ATOM     22  O   UNL     1      12.868  -2.076   0.000  0.00  0.00    +0.000 OA
ATOM     23  C   UNL     1      12.154  -1.664   0.000  0.00  0.00    +0.000 C 
ENDBRANCH  21  23
ENDBRANCH   4  17
BRANCH  11  25
ATOM     24  C   UNL     1       4.961   1.668   0.000  0.00  0.00    +0.000 A 
ATOM     25  C   UNL     1       6.394   0.849   0.000  0.00  0.00    +0.000 A 
ATOM     26  C   UNL     1       4.965   0.843   0.000  0.00  0.00    +0.000 A 
ATOM     27  C   UNL     1       5.674   2.083   0.000  0.00  0.00    +0.000 A 
ATOM     28  C   UNL     1       5.681   0.433   0.000  0.00  0.00    +0.000 A 
ATOM     29  C   UNL     1       6.390   1.674   0.000  0.00  0.00    +0.000 A 
BRANCH  24  30
ATOM     30  O   UNL     1       4.245   2.078   0.000  0.00  0.00    +0.000 OA
BRANCH  30  39
ATOM     31  O   UNL     1       3.526   3.312   0.000  0.00  0.00    +0.000 OA
ATOM     32  O   UNL     1       5.665   4.558   0.000  0.00  0.00    +0.000 OA
ATOM     33  O   UNL     1       4.233   5.378   0.000  0.00  0.00    +0.000 OA
ATOM     34  O   UNL     1       5.671   2.908   0.000  0.00  0.00    +0.000 OA
ATOM     35  C   UNL     1       4.952   4.143   0.000  0.00  0.00    +0.000 C 
ATOM     36  C   UNL     1       4.236   4.553   0.000  0.00  0.00    +0.000 C 
ATOM     37  C   UNL     1       4.955   3.318   0.000  0.00  0.00    +0.000 C 
ATOM     38  C   UNL     1       3.523   4.138   0.000  0.00  0.00    +0.000 C 
ATOM     39  C   UNL     1       4.242   2.903   0.000  0.00  0.00    +0.000 C 
BRANCH  38  41
ATOM     40  O   UNL     1       2.094   4.132   0.000  0.00  0.00    +0.000 OA
ATOM     41  C   UNL     1       2.807   4.547   0.000  0.00  0.00    +0.000 C 
ENDBRANCH  38  41
ENDBRANCH  30  39
ENDBRANCH  24  30
ENDBRANCH  11  25
BRANCH   5  42
ATOM     42  O   UNL     1       8.581  -2.901   0.000  0.00  0.00    +0.000 OA
BRANCH  42  50
ATOM     43  O   UNL     1       7.152  -2.901   0.000  0.00  0.00    +0.000 OA
ATOM     44  O   UNL     1       7.152  -5.376   0.000  0.00  0.00    +0.000 OA
ATOM     45  O   UNL     1       8.581  -4.551   0.000  0.00  0.00    +0.000 OA
ATOM     46  O   UNL     1       5.723  -4.551   0.000  0.00  0.00    +0.000 OA
ATOM     47  C   UNL     1       7.152  -4.551   0.000  0.00  0.00    +0.000 C 
ATOM     48  C   UNL     1       7.867  -4.139   0.000  0.00  0.00    +0.000 C 
ATOM     49  C   UNL     1       6.438  -4.139   0.000  0.00  0.00    +0.000 C 
ATOM     50  C   UNL     1       7.867  -3.314   0.000  0.00  0.00    +0.000 C 
ATOM     51  C   UNL     1       6.438  -3.314   0.000  0.00  0.00    +0.000 C 
BRANCH  51  53
ATOM     52  O   UNL     1       5.009  -3.314   0.000  0.00  0.00    +0.000 OA
ATOM     53  C   UNL     1       5.723  -2.901   0.000  0.00  0.00    +0.000 C 
ENDBRANCH  51  53
ENDBRANCH  42  50
ENDBRANCH   5  42
TORSDOF 9
