REMARK  Name = 10076238
REMARK  7 active torsions:
REMARK  status: ('A' for Active; 'I' for Inactive)
REMARK    1  A    between atoms: O_1  and  C_14
REMARK    2  A    between atoms: O_1  and  C_18
REMARK    3  A    between atoms: O_6  and  C_20
REMARK    4  A    between atoms: O_6  and  C_25
REMARK    5  A    between atoms: C_15  and  C_23
REMARK    6  A    between atoms: C_21  and  C_24
REMARK    7  A    between atoms: C_28  and  C_29
REMARK                            x       y       z     vdW  Elec       q    Type
REMARK                         _______ _______ _______ _____ _____    ______ ____
ROOT
ATOM      1  O   UNL     1       4.236  -2.003   0.000  0.00  0.00    +0.000 OA
ATOM      2  O   UNL     1       4.236  -4.478   0.000  0.00  0.00    +0.000 OA
ATOM      3  O   UNL     1       2.808  -3.653   0.000  0.00  0.00    +0.000 OA
ATOM      4  C   UNL     1       4.951  -3.240   0.000  0.00  0.00    +0.000 C 
ATOM      5  C   UNL     1       4.236  -3.653   0.000  0.00  0.00    +0.000 C 
ATOM      6  C   UNL     1       3.522  -3.240   0.000  0.00  0.00    +0.000 C 
ATOM      7  C   UNL     1       4.951  -2.415   0.000  0.00  0.00    +0.000 C 
ATOM      8  C   UNL     1       3.522  -2.415   0.000  0.00  0.00    +0.000 C 
ENDROOT
BRANCH   8  10
ATOM      9  O   UNL     1       2.093  -2.415   0.000  0.00  0.00    +0.000 OA
ATOM     10  C   UNL     1       2.808  -2.003   0.000  0.00  0.00    +0.000 C 
ENDBRANCH   8  10
BRANCH   4  11
ATOM     11  O   UNL     1       5.665  -3.653   0.000  0.00  0.00    +0.000 OA
BRANCH  11  17
ATOM     12  O   UNL     1       6.466  -2.420   0.000  0.00  0.00    +0.000 OA
ATOM     13  O   UNL     1       8.400  -2.550   0.000  0.00  0.00    +0.000 OA
ATOM     14  O   UNL     1       7.305  -4.383   0.000  0.00  0.00    +0.000 OA
ATOM     15  C   UNL     1       7.686  -2.963   0.000  0.00  0.00    +0.000 C 
ATOM     16  C   UNL     1       7.133  -3.576   0.000  0.00  0.00    +0.000 C 
ATOM     17  C   UNL     1       6.380  -3.240   0.000  0.00  0.00    +0.000 C 
ATOM     18  C   UNL     1       7.273  -2.248   0.000  0.00  0.00    +0.000 C 
BRANCH  15  20
ATOM     19  O   UNL     1       9.083  -3.260   0.000  0.00  0.00    +0.000 OA
ATOM     20  C   UNL     1       8.299  -3.515   0.000  0.00  0.00    +0.000 C 
ENDBRANCH  15  20
ENDBRANCH  11  17
ENDBRANCH   4  11
BRANCH   7  21
ATOM     21  O   UNL     1       5.665  -2.003   0.000  0.00  0.00    +0.000 OA
BRANCH  21  22
ATOM     22  C   UNL     1       5.665  -1.178   0.000  0.00  0.00    +0.000 A 
ATOM     23  C   UNL     1       6.380  -0.765   0.000  0.00  0.00    +0.000 A 
ATOM     24  C   UNL     1       4.951  -0.765   0.000  0.00  0.00    +0.000 A 
ATOM     25  C   UNL     1       5.665   0.472   0.000  0.00  0.00    +0.000 A 
ATOM     26  C   UNL     1       6.380   0.060   0.000  0.00  0.00    +0.000 A 
ATOM     27  C   UNL     1       4.951   0.060   0.000  0.00  0.00    +0.000 A 
BRANCH  25  31
ATOM     28  O   UNL     1       6.380   1.710   0.000  0.00  0.00    +0.000 OA
ATOM     29  O   UNL     1       4.236   2.947   0.000  0.00  0.00    +0.000 OA
ATOM     30  O   UNL     1       7.853   4.222   0.000  0.00  0.00    +0.000 OA
ATOM     31  C   UNL     1       5.665   1.297   0.000  0.00  0.00    +0.000 C 
ATOM     32  C   UNL     1       4.951   1.710   0.000  0.00  0.00    +0.000 C 
ATOM     33  C   UNL     1       4.951   2.535   0.000  0.00  0.00    +0.000 C 
ATOM     34  C   UNL     1       5.665   2.947   0.000  0.00  0.00    +0.000 A 
ATOM     35  C   UNL     1       6.380   2.535   0.000  0.00  0.00    +0.000 A 
ATOM     36  C   UNL     1       7.130   2.953   0.000  0.00  0.00    +0.000 A 
ATOM     37  C   UNL     1       5.652   3.807   0.000  0.00  0.00    +0.000 A 
ATOM     38  C   UNL     1       7.137   3.812   0.000  0.00  0.00    +0.000 A 
ATOM     39  C   UNL     1       6.393   4.242   0.000  0.00  0.00    +0.000 A 
ENDBRANCH  25  31
ENDBRANCH  21  22
ENDBRANCH   7  21
TORSDOF 7
