REMARK  Name = 131752282
REMARK  13 active torsions:
REMARK  status: ('A' for Active; 'I' for Inactive)
REMARK    1  A    between atoms: O_1  and  C_23
REMARK    2  A    between atoms: O_1  and  C_28
REMARK    3  A    between atoms: O_10  and  C_35
REMARK    4  A    between atoms: O_10  and  C_50
REMARK    5  A    between atoms: O_15  and  C_45
REMARK    6  A    between atoms: O_15  and  C_52
REMARK    7  A    between atoms: C_25  and  C_33
REMARK    8  A    between atoms: C_27  and  C_34
REMARK    9  A    between atoms: C_32  and  C_35
REMARK   10  A    between atoms: C_44  and  C_47
REMARK   11  A    between atoms: C_48  and  C_51
REMARK   12  A    between atoms: C_50  and  C_57
REMARK   13  A    between atoms: C_58  and  C_59
REMARK                            x       y       z     vdW  Elec       q    Type
REMARK                         _______ _______ _______ _____ _____    ______ ____
ROOT
ATOM      1  O   UNL     1      11.381   1.333   0.000  0.00  0.00    +0.000 OA
ATOM      2  O   UNL     1       9.238   0.096   0.000  0.00  0.00    +0.000 OA
ATOM      3  O   UNL     1       9.238   1.746   0.000  0.00  0.00    +0.000 OA
ATOM      4  C   UNL     1      10.667   0.096   0.000  0.00  0.00    +0.000 C 
ATOM      5  C   UNL     1       9.952   0.508   0.000  0.00  0.00    +0.000 C 
ATOM      6  C   UNL     1      11.381   0.508   0.000  0.00  0.00    +0.000 C 
ATOM      7  C   UNL     1       9.952   1.333   0.000  0.00  0.00    +0.000 C 
ATOM      8  C   UNL     1      10.667   1.746   0.000  0.00  0.00    +0.000 C 
ENDROOT
BRANCH   6  13
ATOM      9  O   UNL     1      12.810   1.333   0.000  0.00  0.00    +0.000 OA
ATOM     10  O   UNL     1      11.381  -1.141   0.000  0.00  0.00    +0.000 OA
ATOM     11  O   UNL     1      14.262  -1.170   0.000  0.00  0.00    +0.000 OA
ATOM     12  O   UNL     1      14.252   1.362   0.000  0.00  0.00    +0.000 OA
ATOM     13  C   UNL     1      12.096   0.096   0.000  0.00  0.00    +0.000 A 
ATOM     14  C   UNL     1      12.810   0.508   0.000  0.00  0.00    +0.000 A 
ATOM     15  C   UNL     1      12.096  -0.729   0.000  0.00  0.00    +0.000 A 
ATOM     16  C   UNL     1      13.524   0.096   0.000  0.00  0.00    +0.000 A 
ATOM     17  C   UNL     1      12.810  -1.141   0.000  0.00  0.00    +0.000 A 
ATOM     18  C   UNL     1      13.524  -0.729   0.000  0.00  0.00    +0.000 A 
ATOM     19  C   UNL     1      14.262   0.537   0.000  0.00  0.00    +0.000 A 
ATOM     20  C   UNL     1      15.010  -0.746   0.000  0.00  0.00    +0.000 A 
ATOM     21  C   UNL     1      15.010   0.113   0.000  0.00  0.00    +0.000 A 
BRANCH  20  22
ATOM     22  C   UNL     1      15.722  -1.161   0.000  0.00  0.00    +0.000 A 
ATOM     23  C   UNL     1      17.148  -1.992   0.000  0.00  0.00    +0.000 A 
ATOM     24  C   UNL     1      15.719  -1.986   0.000  0.00  0.00    +0.000 A 
ATOM     25  C   UNL     1      16.439  -0.752   0.000  0.00  0.00    +0.000 A 
ATOM     26  C   UNL     1      16.432  -2.402   0.000  0.00  0.00    +0.000 A 
ATOM     27  C   UNL     1      17.151  -1.167   0.000  0.00  0.00    +0.000 A 
BRANCH  23  28
ATOM     28  O   UNL     1      17.861  -2.407   0.000  0.00  0.00    +0.000 OA
BRANCH  28  37
ATOM     29  O   UNL     1      18.580  -1.172   0.000  0.00  0.00    +0.000 OA
ATOM     30  O   UNL     1      20.719  -2.418   0.000  0.00  0.00    +0.000 OA
ATOM     31  O   UNL     1      20.725  -0.768   0.000  0.00  0.00    +0.000 OA
ATOM     32  O   UNL     1      19.287  -3.238   0.000  0.00  0.00    +0.000 OA
ATOM     33  C   UNL     1      20.006  -2.003   0.000  0.00  0.00    +0.000 C 
ATOM     34  C   UNL     1      20.009  -1.178   0.000  0.00  0.00    +0.000 C 
ATOM     35  C   UNL     1      19.290  -2.413   0.000  0.00  0.00    +0.000 C 
ATOM     36  C   UNL     1      19.296  -0.763   0.000  0.00  0.00    +0.000 C 
ATOM     37  C   UNL     1      18.577  -1.997   0.000  0.00  0.00    +0.000 C 
BRANCH  36  39
ATOM     38  O   UNL     1      20.016   0.472   0.000  0.00  0.00    +0.000 OA
ATOM     39  C   UNL     1      19.299   0.062   0.000  0.00  0.00    +0.000 C 
ENDBRANCH  36  39
ENDBRANCH  28  37
ENDBRANCH  23  28
ENDBRANCH  20  22
ENDBRANCH   6  13
BRANCH   8  41
ATOM     40  O   UNL     1       9.952   2.983   0.000  0.00  0.00    +0.000 OA
ATOM     41  C   UNL     1      10.667   2.571   0.000  0.00  0.00    +0.000 C 
ENDBRANCH   8  41
BRANCH   4  42
ATOM     42  O   UNL     1      10.667  -0.729   0.000  0.00  0.00    +0.000 OA
BRANCH  42  47
ATOM     43  O   UNL     1       9.238  -0.729   0.000  0.00  0.00    +0.000 OA
ATOM     44  O   UNL     1      10.667  -2.379   0.000  0.00  0.00    +0.000 OA
ATOM     45  O   UNL     1       9.238  -3.204   0.000  0.00  0.00    +0.000 OA
ATOM     46  O   UNL     1       7.809  -2.379   0.000  0.00  0.00    +0.000 OA
ATOM     47  C   UNL     1       9.952  -1.141   0.000  0.00  0.00    +0.000 C 
ATOM     48  C   UNL     1       9.952  -1.966   0.000  0.00  0.00    +0.000 C 
ATOM     49  C   UNL     1       9.238  -2.379   0.000  0.00  0.00    +0.000 C 
ATOM     50  C   UNL     1       8.523  -1.966   0.000  0.00  0.00    +0.000 C 
ATOM     51  C   UNL     1       8.523  -1.141   0.000  0.00  0.00    +0.000 C 
BRANCH  51  52
ATOM     52  C   UNL     1       7.809  -0.729   0.000  0.00  0.00    +0.000 C 
BRANCH  52  53
ATOM     53  O   UNL     1       7.094  -1.141   0.000  0.00  0.00    +0.000 OA
BRANCH  53  55
ATOM     54  O   UNL     1       6.380   0.096   0.000  0.00  0.00    +0.000 OA
ATOM     55  C   UNL     1       6.380  -0.729   0.000  0.00  0.00    +0.000 C 
BRANCH  55  56
ATOM     56  C   UNL     1       5.665  -1.141   0.000  0.00  0.00    +0.000 C 
ATOM     57  C   UNL     1       4.951  -0.729   0.000  0.00  0.00    +0.000 C 
BRANCH  57  59
ATOM     58  O   UNL     1       2.093  -2.379   0.000  0.00  0.00    +0.000 OA
ATOM     59  C   UNL     1       4.236  -1.141   0.000  0.00  0.00    +0.000 A 
ATOM     60  C   UNL     1       3.522  -0.729   0.000  0.00  0.00    +0.000 A 
ATOM     61  C   UNL     1       4.236  -1.966   0.000  0.00  0.00    +0.000 A 
ATOM     62  C   UNL     1       2.808  -1.141   0.000  0.00  0.00    +0.000 A 
ATOM     63  C   UNL     1       3.522  -2.379   0.000  0.00  0.00    +0.000 A 
ATOM     64  C   UNL     1       2.808  -1.966   0.000  0.00  0.00    +0.000 A 
ENDBRANCH  57  59
ENDBRANCH  55  56
ENDBRANCH  53  55
ENDBRANCH  52  53
ENDBRANCH  51  52
ENDBRANCH  42  47
ENDBRANCH   4  42
TORSDOF 13
