REMARK  Name = 44259990
REMARK  8 active torsions:
REMARK  status: ('A' for Active; 'I' for Inactive)
REMARK    1  A    between atoms: O_2  and  C_23
REMARK    2  A    between atoms: O_2  and  C_27
REMARK    3  A    between atoms: O_6  and  C_26
REMARK    4  A    between atoms: O_6  and  C_30
REMARK    5  A    between atoms: O_13  and  C_37
REMARK    6  A    between atoms: O_16  and  C_42
REMARK    7  A    between atoms: C_18  and  C_27
REMARK    8  A    between atoms: C_31  and  C_35
REMARK                            x       y       z     vdW  Elec       q    Type
REMARK                         _______ _______ _______ _____ _____    ______ ____
ROOT
ATOM      1  O   UNL     1       5.006   2.603   0.000  0.00  0.00    +0.000 OA
ATOM      2  O   UNL     1       5.006   0.128   0.000  0.00  0.00    +0.000 OA
ATOM      3  O   UNL     1       3.564   0.099   0.000  0.00  0.00    +0.000 OA
ATOM      4  O   UNL     1       2.094   2.623   0.000  0.00  0.00    +0.000 OA
ATOM      5  C   UNL     1       5.721   1.365   0.000  0.00  0.00    +0.000 A 
ATOM      6  C   UNL     1       5.721   2.190   0.000  0.00  0.00    +0.000 A 
ATOM      7  C   UNL     1       5.006   0.953   0.000  0.00  0.00    +0.000 A 
ATOM      8  C   UNL     1       4.292   1.365   0.000  0.00  0.00    +0.000 A 
ATOM      9  C   UNL     1       4.292   2.190   0.000  0.00  0.00    +0.000 A 
ATOM     10  C   UNL     1       3.554   0.924   0.000  0.00  0.00    +0.000 A 
ATOM     11  C   UNL     1       3.554   2.631   0.000  0.00  0.00    +0.000 A 
ATOM     12  C   UNL     1       2.807   1.348   0.000  0.00  0.00    +0.000 A 
ATOM     13  C   UNL     1       2.807   2.208   0.000  0.00  0.00    +0.000 A 
ENDROOT
BRANCH   6  15
ATOM     14  O   UNL     1       8.579   3.840   0.000  0.00  0.00    +0.000 OA
ATOM     15  C   UNL     1       6.435   2.603   0.000  0.00  0.00    +0.000 A 
ATOM     16  C   UNL     1       6.435   3.428   0.000  0.00  0.00    +0.000 A 
ATOM     17  C   UNL     1       7.150   2.190   0.000  0.00  0.00    +0.000 A 
ATOM     18  C   UNL     1       7.150   3.840   0.000  0.00  0.00    +0.000 A 
ATOM     19  C   UNL     1       7.864   2.603   0.000  0.00  0.00    +0.000 A 
ATOM     20  C   UNL     1       7.864   3.428   0.000  0.00  0.00    +0.000 A 
BRANCH  18  21
ATOM     21  O   UNL     1       7.150   4.665   0.000  0.00  0.00    +0.000 OA
ATOM     22  C   UNL     1       6.435   5.078   0.000  0.00  0.00    +0.000 C 
ENDBRANCH  18  21
ENDBRANCH   6  15
BRANCH  11  23
ATOM     23  O   UNL     1       3.564   3.456   0.000  0.00  0.00    +0.000 OA
ATOM     24  C   UNL     1       2.854   3.877   0.000  0.00  0.00    +0.000 C 
ENDBRANCH  11  23
BRANCH   5  25
ATOM     25  O   UNL     1       6.435   0.953   0.000  0.00  0.00    +0.000 OA
BRANCH  25  34
ATOM     26  O   UNL     1       5.721  -0.285   0.000  0.00  0.00    +0.000 OA
ATOM     27  O   UNL     1       6.435  -2.347   0.000  0.00  0.00    +0.000 OA
ATOM     28  O   UNL     1       7.864  -1.522   0.000  0.00  0.00    +0.000 OA
ATOM     29  O   UNL     1       7.864   0.128   0.000  0.00  0.00    +0.000 OA
ATOM     30  C   UNL     1       5.721  -1.110   0.000  0.00  0.00    +0.000 C 
ATOM     31  C   UNL     1       6.435  -1.522   0.000  0.00  0.00    +0.000 C 
ATOM     32  C   UNL     1       7.150  -1.110   0.000  0.00  0.00    +0.000 C 
ATOM     33  C   UNL     1       7.150  -0.285   0.000  0.00  0.00    +0.000 C 
ATOM     34  C   UNL     1       6.435   0.128   0.000  0.00  0.00    +0.000 C 
BRANCH  30  35
ATOM     35  C   UNL     1       5.006  -1.522   0.000  0.00  0.00    +0.000 C 
BRANCH  35  36
ATOM     36  O   UNL     1       5.006  -2.347   0.000  0.00  0.00    +0.000 OA
BRANCH  36  42
ATOM     37  O   UNL     1       3.577  -2.347   0.000  0.00  0.00    +0.000 OA
ATOM     38  O   UNL     1       5.006  -3.997   0.000  0.00  0.00    +0.000 OA
ATOM     39  O   UNL     1       3.577  -4.822   0.000  0.00  0.00    +0.000 OA
ATOM     40  O   UNL     1       2.148  -3.997   0.000  0.00  0.00    +0.000 OA
ATOM     41  C   UNL     1       4.292  -3.585   0.000  0.00  0.00    +0.000 C 
ATOM     42  C   UNL     1       4.292  -2.760   0.000  0.00  0.00    +0.000 C 
ATOM     43  C   UNL     1       3.577  -3.997   0.000  0.00  0.00    +0.000 C 
ATOM     44  C   UNL     1       2.863  -3.585   0.000  0.00  0.00    +0.000 C 
ATOM     45  C   UNL     1       2.863  -2.760   0.000  0.00  0.00    +0.000 C 
ATOM     46  C   UNL     1       2.148  -2.347   0.000  0.00  0.00    +0.000 C 
ENDBRANCH  36  42
ENDBRANCH  35  36
ENDBRANCH  30  35
ENDBRANCH  25  34
ENDBRANCH   5  25
TORSDOF 8
