REMARK  Name = 44259598
REMARK  8 active torsions:
REMARK  status: ('A' for Active; 'I' for Inactive)
REMARK    1  A    between atoms: O_1  and  C_18
REMARK    2  A    between atoms: O_1  and  C_21
REMARK    3  A    between atoms: O_6  and  C_26
REMARK    4  A    between atoms: O_6  and  C_30
REMARK    5  A    between atoms: O_15  and  C_41
REMARK    6  A    between atoms: C_22  and  C_28
REMARK    7  A    between atoms: C_27  and  C_29
REMARK    8  A    between atoms: C_31  and  C_34
REMARK                            x       y       z     vdW  Elec       q    Type
REMARK                         _______ _______ _______ _____ _____    ______ ____
ROOT
ATOM      1  O   UNL     1       7.094   0.098   0.000  0.00  0.00    +0.000 OA
ENDROOT
BRANCH   1   5
ATOM      2  O   UNL     1       7.809   2.160   0.000  0.00  0.00    +0.000 OA
ATOM      3  O   UNL     1       5.665   0.923   0.000  0.00  0.00    +0.000 OA
ATOM      4  O   UNL     1       4.919   2.158   0.000  0.00  0.00    +0.000 OA
ATOM      5  C   UNL     1       7.094   0.923   0.000  0.00  0.00    +0.000 A 
ATOM      6  C   UNL     1       7.809   1.335   0.000  0.00  0.00    +0.000 A 
ATOM      7  C   UNL     1       6.380   1.335   0.000  0.00  0.00    +0.000 A 
ATOM      8  C   UNL     1       6.380   2.160   0.000  0.00  0.00    +0.000 A 
ATOM      9  C   UNL     1       7.094   2.573   0.000  0.00  0.00    +0.000 A 
ATOM     10  C   UNL     1       5.629   2.579   0.000  0.00  0.00    +0.000 A 
ATOM     11  C   UNL     1       7.107   3.432   0.000  0.00  0.00    +0.000 A 
ATOM     12  C   UNL     1       5.622   3.438   0.000  0.00  0.00    +0.000 A 
ATOM     13  C   UNL     1       6.367   3.868   0.000  0.00  0.00    +0.000 A 
BRANCH   6  16
ATOM     14  O   UNL     1       9.238  -1.140   0.000  0.00  0.00    +0.000 OA
ATOM     15  O   UNL     1      10.667  -0.315   0.000  0.00  0.00    +0.000 OA
ATOM     16  C   UNL     1       8.523   0.923   0.000  0.00  0.00    +0.000 A 
ATOM     17  C   UNL     1       8.523   0.098   0.000  0.00  0.00    +0.000 A 
ATOM     18  C   UNL     1       9.238   1.335   0.000  0.00  0.00    +0.000 A 
ATOM     19  C   UNL     1       9.238  -0.315   0.000  0.00  0.00    +0.000 A 
ATOM     20  C   UNL     1       9.952   0.923   0.000  0.00  0.00    +0.000 A 
ATOM     21  C   UNL     1       9.952   0.098   0.000  0.00  0.00    +0.000 A 
ENDBRANCH   6  16
BRANCH  13  22
ATOM     22  O   UNL     1       6.370   4.693   0.000  0.00  0.00    +0.000 OA
ATOM     23  C   UNL     1       5.657   5.108   0.000  0.00  0.00    +0.000 C 
ENDBRANCH  13  22
ENDBRANCH   1   5
BRANCH   1  31
ATOM     24  O   UNL     1       5.665   0.098   0.000  0.00  0.00    +0.000 OA
ATOM     25  O   UNL     1       4.236  -1.552   0.000  0.00  0.00    +0.000 OA
ATOM     26  O   UNL     1       7.094  -1.552   0.000  0.00  0.00    +0.000 OA
ATOM     27  C   UNL     1       5.665  -1.552   0.000  0.00  0.00    +0.000 C 
ATOM     28  C   UNL     1       4.951  -1.140   0.000  0.00  0.00    +0.000 C 
ATOM     29  C   UNL     1       6.380  -1.140   0.000  0.00  0.00    +0.000 C 
ATOM     30  C   UNL     1       4.951  -0.315   0.000  0.00  0.00    +0.000 C 
ATOM     31  C   UNL     1       6.380  -0.315   0.000  0.00  0.00    +0.000 C 
BRANCH  30  33
ATOM     32  O   UNL     1       4.236   0.923   0.000  0.00  0.00    +0.000 OA
ATOM     33  C   UNL     1       4.236   0.098   0.000  0.00  0.00    +0.000 C 
ENDBRANCH  30  33
BRANCH  27  34
ATOM     34  O   UNL     1       5.665  -2.377   0.000  0.00  0.00    +0.000 OA
BRANCH  34  39
ATOM     35  O   UNL     1       4.236  -2.377   0.000  0.00  0.00    +0.000 OA
ATOM     36  O   UNL     1       5.665  -4.027   0.000  0.00  0.00    +0.000 OA
ATOM     37  O   UNL     1       4.236  -4.852   0.000  0.00  0.00    +0.000 OA
ATOM     38  O   UNL     1       2.808  -4.027   0.000  0.00  0.00    +0.000 OA
ATOM     39  C   UNL     1       4.951  -2.790   0.000  0.00  0.00    +0.000 C 
ATOM     40  C   UNL     1       4.951  -3.615   0.000  0.00  0.00    +0.000 C 
ATOM     41  C   UNL     1       4.236  -4.027   0.000  0.00  0.00    +0.000 C 
ATOM     42  C   UNL     1       3.522  -3.615   0.000  0.00  0.00    +0.000 C 
ATOM     43  C   UNL     1       3.522  -2.790   0.000  0.00  0.00    +0.000 C 
BRANCH  43  45
ATOM     44  O   UNL     1       2.093  -2.790   0.000  0.00  0.00    +0.000 OA
ATOM     45  C   UNL     1       2.808  -2.377   0.000  0.00  0.00    +0.000 C 
ENDBRANCH  43  45
ENDBRANCH  34  39
ENDBRANCH  27  34
ENDBRANCH   1  31
TORSDOF 8
