REMARK  Name = 44258413
REMARK  4 active torsions:
REMARK  status: ('A' for Active; 'I' for Inactive)
REMARK    1  A    between atoms: O_2  and  C_14
REMARK    2  A    between atoms: O_2  and  C_16
REMARK    3  A    between atoms: O_7  and  C_18
REMARK    4  A    between atoms: C_23  and  C_25
REMARK                            x       y       z     vdW  Elec       q    Type
REMARK                         _______ _______ _______ _____ _____    ______ ____
ROOT
ATOM      1  O   UNL     1       6.403   2.001   0.000  0.00  0.00    +0.000 OA
ATOM      2  O   UNL     1       3.522   1.973   0.000  0.00  0.00    +0.000 OA
ATOM      3  O   UNL     1       6.393  -0.531   0.000  0.00  0.00    +0.000 OA
ATOM      4  C   UNL     1       4.951   0.323   0.000  0.00  0.00    +0.000 A 
ATOM      5  C   UNL     1       5.665   0.735   0.000  0.00  0.00    +0.000 A 
ATOM      6  C   UNL     1       4.236   0.735   0.000  0.00  0.00    +0.000 A 
ATOM      7  C   UNL     1       5.665   1.560   0.000  0.00  0.00    +0.000 A 
ATOM      8  C   UNL     1       4.236   1.560   0.000  0.00  0.00    +0.000 A 
ATOM      9  C   UNL     1       6.403   0.294   0.000  0.00  0.00    +0.000 A 
ATOM     10  C   UNL     1       4.951   1.973   0.000  0.00  0.00    +0.000 A 
ATOM     11  C   UNL     1       7.150   1.577   0.000  0.00  0.00    +0.000 A 
ATOM     12  C   UNL     1       7.150   0.718   0.000  0.00  0.00    +0.000 A 
ENDROOT
BRANCH  11  13
ATOM     13  C   UNL     1       7.863   1.993   0.000  0.00  0.00    +0.000 A 
ATOM     14  C   UNL     1       7.860   2.818   0.000  0.00  0.00    +0.000 A 
ATOM     15  C   UNL     1       8.579   1.583   0.000  0.00  0.00    +0.000 A 
ATOM     16  C   UNL     1       8.573   3.233   0.000  0.00  0.00    +0.000 A 
ATOM     17  C   UNL     1       9.292   1.998   0.000  0.00  0.00    +0.000 A 
ATOM     18  C   UNL     1       9.289   2.823   0.000  0.00  0.00    +0.000 A 
ENDBRANCH  11  13
BRANCH   6  19
ATOM     19  O   UNL     1       3.522   0.323   0.000  0.00  0.00    +0.000 OA
ATOM     20  C   UNL     1       2.808   0.735   0.000  0.00  0.00    +0.000 C 
ENDBRANCH   6  19
BRANCH   4  21
ATOM     21  O   UNL     1       4.951  -0.502   0.000  0.00  0.00    +0.000 OA
BRANCH  21  30
ATOM     22  O   UNL     1       3.522  -0.502   0.000  0.00  0.00    +0.000 OA
ATOM     23  O   UNL     1       3.522  -2.977   0.000  0.00  0.00    +0.000 OA
ATOM     24  O   UNL     1       2.093  -2.152   0.000  0.00  0.00    +0.000 OA
ATOM     25  O   UNL     1       4.951  -2.152   0.000  0.00  0.00    +0.000 OA
ATOM     26  C   UNL     1       3.522  -2.152   0.000  0.00  0.00    +0.000 C 
ATOM     27  C   UNL     1       2.808  -1.740   0.000  0.00  0.00    +0.000 C 
ATOM     28  C   UNL     1       4.236  -1.740   0.000  0.00  0.00    +0.000 C 
ATOM     29  C   UNL     1       2.808  -0.915   0.000  0.00  0.00    +0.000 C 
ATOM     30  C   UNL     1       4.236  -0.915   0.000  0.00  0.00    +0.000 C 
ATOM     31  C   UNL     1       2.093  -0.502   0.000  0.00  0.00    +0.000 C 
ENDBRANCH  21  30
ENDBRANCH   4  21
TORSDOF 4
