REMARK  Name = 131751349
REMARK  10 active torsions:
REMARK  status: ('A' for Active; 'I' for Inactive)
REMARK    1  A    between atoms: O_1  and  C_19
REMARK    2  A    between atoms: O_1  and  C_24
REMARK    3  A    between atoms: O_10  and  C_31
REMARK    4  A    between atoms: O_10  and  C_40
REMARK    5  A    between atoms: C_21  and  C_29
REMARK    6  A    between atoms: C_23  and  C_30
REMARK    7  A    between atoms: C_28  and  C_31
REMARK    8  A    between atoms: C_39  and  C_41
REMARK    9  A    between atoms: C_40  and  C_42
REMARK   10  A    between atoms: C_45  and  C_49
REMARK                            x       y       z     vdW  Elec       q    Type
REMARK                         _______ _______ _______ _____ _____    ______ ____
ROOT
ATOM      1  O   UNL     1      11.381   1.328   0.000  0.00  0.00    +0.000 OA
ATOM      2  O   UNL     1       9.238   0.091   0.000  0.00  0.00    +0.000 OA
ATOM      3  O   UNL     1       9.238   1.741   0.000  0.00  0.00    +0.000 OA
ATOM      4  C   UNL     1      10.667   0.091   0.000  0.00  0.00    +0.000 C 
ATOM      5  C   UNL     1       9.952   0.503   0.000  0.00  0.00    +0.000 C 
ATOM      6  C   UNL     1      11.381   0.503   0.000  0.00  0.00    +0.000 C 
ATOM      7  C   UNL     1       9.952   1.328   0.000  0.00  0.00    +0.000 C 
ATOM      8  C   UNL     1      10.667   1.741   0.000  0.00  0.00    +0.000 C 
ENDROOT
BRANCH   6  13
ATOM      9  O   UNL     1      12.810   1.328   0.000  0.00  0.00    +0.000 OA
ATOM     10  O   UNL     1      11.381  -1.147   0.000  0.00  0.00    +0.000 OA
ATOM     11  O   UNL     1      14.262  -1.176   0.000  0.00  0.00    +0.000 OA
ATOM     12  O   UNL     1      14.253   1.357   0.000  0.00  0.00    +0.000 OA
ATOM     13  C   UNL     1      12.096   0.091   0.000  0.00  0.00    +0.000 A 
ATOM     14  C   UNL     1      12.810   0.503   0.000  0.00  0.00    +0.000 A 
ATOM     15  C   UNL     1      12.096  -0.734   0.000  0.00  0.00    +0.000 A 
ATOM     16  C   UNL     1      13.525   0.091   0.000  0.00  0.00    +0.000 A 
ATOM     17  C   UNL     1      12.810  -1.147   0.000  0.00  0.00    +0.000 A 
ATOM     18  C   UNL     1      13.525  -0.734   0.000  0.00  0.00    +0.000 A 
ATOM     19  C   UNL     1      14.262   0.532   0.000  0.00  0.00    +0.000 A 
ATOM     20  C   UNL     1      15.010   0.108   0.000  0.00  0.00    +0.000 A 
ATOM     21  C   UNL     1      15.010  -0.752   0.000  0.00  0.00    +0.000 A 
BRANCH  21  24
ATOM     22  O   UNL     1      16.429  -3.232   0.000  0.00  0.00    +0.000 OA
ATOM     23  O   UNL     1      17.861  -2.413   0.000  0.00  0.00    +0.000 OA
ATOM     24  C   UNL     1      15.723  -1.167   0.000  0.00  0.00    +0.000 A 
ATOM     25  C   UNL     1      15.719  -1.992   0.000  0.00  0.00    +0.000 A 
ATOM     26  C   UNL     1      16.439  -0.757   0.000  0.00  0.00    +0.000 A 
ATOM     27  C   UNL     1      16.432  -2.407   0.000  0.00  0.00    +0.000 A 
ATOM     28  C   UNL     1      17.151  -1.172   0.000  0.00  0.00    +0.000 A 
ATOM     29  C   UNL     1      17.148  -1.997   0.000  0.00  0.00    +0.000 A 
ENDBRANCH  21  24
ENDBRANCH   6  13
BRANCH   8  31
ATOM     30  O   UNL     1       9.952   2.978   0.000  0.00  0.00    +0.000 OA
ATOM     31  C   UNL     1      10.667   2.566   0.000  0.00  0.00    +0.000 C 
ENDBRANCH   8  31
BRANCH   4  32
ATOM     32  O   UNL     1      10.667  -0.734   0.000  0.00  0.00    +0.000 OA
BRANCH  32  37
ATOM     33  O   UNL     1       9.238  -0.734   0.000  0.00  0.00    +0.000 OA
ATOM     34  O   UNL     1      10.667  -2.384   0.000  0.00  0.00    +0.000 OA
ATOM     35  O   UNL     1       9.238  -3.209   0.000  0.00  0.00    +0.000 OA
ATOM     36  O   UNL     1       7.809  -2.384   0.000  0.00  0.00    +0.000 OA
ATOM     37  C   UNL     1       9.952  -1.147   0.000  0.00  0.00    +0.000 C 
ATOM     38  C   UNL     1       9.952  -1.972   0.000  0.00  0.00    +0.000 C 
ATOM     39  C   UNL     1       9.238  -2.384   0.000  0.00  0.00    +0.000 C 
ATOM     40  C   UNL     1       8.523  -1.972   0.000  0.00  0.00    +0.000 C 
ATOM     41  C   UNL     1       8.523  -1.147   0.000  0.00  0.00    +0.000 C 
BRANCH  41  42
ATOM     42  C   UNL     1       7.809  -0.734   0.000  0.00  0.00    +0.000 C 
BRANCH  42  43
ATOM     43  O   UNL     1       7.094  -1.147   0.000  0.00  0.00    +0.000 OA
BRANCH  43  45
ATOM     44  O   UNL     1       6.380   0.091   0.000  0.00  0.00    +0.000 OA
ATOM     45  C   UNL     1       6.380  -0.734   0.000  0.00  0.00    +0.000 C 
BRANCH  45  46
ATOM     46  C   UNL     1       5.665  -1.147   0.000  0.00  0.00    +0.000 C 
ATOM     47  C   UNL     1       4.951  -0.734   0.000  0.00  0.00    +0.000 C 
BRANCH  47  49
ATOM     48  O   UNL     1       2.093  -2.384   0.000  0.00  0.00    +0.000 OA
ATOM     49  C   UNL     1       4.236  -1.147   0.000  0.00  0.00    +0.000 A 
ATOM     50  C   UNL     1       3.522  -0.734   0.000  0.00  0.00    +0.000 A 
ATOM     51  C   UNL     1       4.236  -1.972   0.000  0.00  0.00    +0.000 A 
ATOM     52  C   UNL     1       2.808  -1.147   0.000  0.00  0.00    +0.000 A 
ATOM     53  C   UNL     1       3.522  -2.384   0.000  0.00  0.00    +0.000 A 
ATOM     54  C   UNL     1       2.808  -1.972   0.000  0.00  0.00    +0.000 A 
ENDBRANCH  47  49
ENDBRANCH  45  46
ENDBRANCH  43  45
ENDBRANCH  42  43
ENDBRANCH  41  42
ENDBRANCH  32  37
ENDBRANCH   4  32
TORSDOF 10
