REMARK  Name = 74977947
REMARK  13 active torsions:
REMARK  status: ('A' for Active; 'I' for Inactive)
REMARK    1  A    between atoms: O_4  and  C_22
REMARK    2  A    between atoms: O_4  and  C_24
REMARK    3  A    between atoms: O_7  and  C_25
REMARK    4  A    between atoms: O_10  and  C_38
REMARK    5  A    between atoms: O_10  and  C_40
REMARK    6  A    between atoms: O_11  and  C_39
REMARK    7  A    between atoms: O_12  and  C_43
REMARK    8  A    between atoms: C_20  and  C_23
REMARK    9  A    between atoms: C_27  and  C_32
REMARK   10  A    between atoms: C_29  and  C_31
REMARK   11  A    between atoms: C_29  and  C_33
REMARK   12  A    between atoms: C_31  and  C_38
REMARK   13  A    between atoms: C_33  and  C_44
REMARK                            x       y       z     vdW  Elec       q    Type
REMARK                         _______ _______ _______ _____ _____    ______ ____
ROOT
ATOM      1  O   UNL     1       6.408  -0.207   0.000  0.00  0.00    +0.000 OA
ATOM      2  O   UNL     1       4.975   2.308   0.000  0.00  0.00    +0.000 OA
ATOM      3  O   UNL     1       4.225   1.076   0.000  0.00  0.00    +0.000 OA
ATOM      4  C   UNL     1       5.665  -0.639   0.000  0.00  0.00    +0.000 A 
ATOM      5  C   UNL     1       6.398   0.652   0.000  0.00  0.00    +0.000 A 
ATOM      6  C   UNL     1       5.685   1.068   0.000  0.00  0.00    +0.000 A 
ATOM      7  C   UNL     1       4.923  -0.207   0.000  0.00  0.00    +0.000 A 
ATOM      8  C   UNL     1       7.114   1.062   0.000  0.00  0.00    +0.000 A 
ATOM      9  C   UNL     1       7.117   1.887   0.000  0.00  0.00    +0.000 A 
ATOM     10  C   UNL     1       4.933   0.652   0.000  0.00  0.00    +0.000 A 
ATOM     11  C   UNL     1       5.688   1.893   0.000  0.00  0.00    +0.000 A 
ATOM     12  C   UNL     1       6.404   2.302   0.000  0.00  0.00    +0.000 A 
ENDROOT
BRANCH   4  16
ATOM     13  C   UNL     1       5.665  -3.115   0.000  0.00  0.00    +0.000 A 
ATOM     14  C   UNL     1       4.951  -2.702   0.000  0.00  0.00    +0.000 A 
ATOM     15  C   UNL     1       6.380  -2.702   0.000  0.00  0.00    +0.000 A 
ATOM     16  C   UNL     1       5.665  -1.464   0.000  0.00  0.00    +0.000 A 
ATOM     17  C   UNL     1       4.951  -1.877   0.000  0.00  0.00    +0.000 A 
ATOM     18  C   UNL     1       6.380  -1.877   0.000  0.00  0.00    +0.000 A 
BRANCH  14  19
ATOM     19  O   UNL     1       4.236  -3.115   0.000  0.00  0.00    +0.000 OA
ATOM     20  C   UNL     1       3.522  -2.702   0.000  0.00  0.00    +0.000 C 
ENDBRANCH  14  19
BRANCH  13  21
ATOM     21  O   UNL     1       5.665  -3.939   0.000  0.00  0.00    +0.000 OA
BRANCH  21  30
ATOM     22  O   UNL     1       4.236  -3.939   0.000  0.00  0.00    +0.000 OA
ATOM     23  O   UNL     1       2.808  -5.590   0.000  0.00  0.00    +0.000 OA
ATOM     24  O   UNL     1       4.236  -6.415   0.000  0.00  0.00    +0.000 OA
ATOM     25  O   UNL     1       5.665  -5.590   0.000  0.00  0.00    +0.000 OA
ATOM     26  C   UNL     1       3.522  -5.177   0.000  0.00  0.00    +0.000 C 
ATOM     27  C   UNL     1       4.236  -5.590   0.000  0.00  0.00    +0.000 C 
ATOM     28  C   UNL     1       3.522  -4.352   0.000  0.00  0.00    +0.000 C 
ATOM     29  C   UNL     1       4.951  -5.177   0.000  0.00  0.00    +0.000 C 
ATOM     30  C   UNL     1       4.951  -4.352   0.000  0.00  0.00    +0.000 C 
BRANCH  28  32
ATOM     31  O   UNL     1       2.093  -4.352   0.000  0.00  0.00    +0.000 OA
ATOM     32  C   UNL     1       2.808  -3.939   0.000  0.00  0.00    +0.000 C 
ENDBRANCH  28  32
ENDBRANCH  21  30
ENDBRANCH  13  21
ENDBRANCH   4  16
BRANCH   8  33
ATOM     33  O   UNL     1       7.827   0.647   0.000  0.00  0.00    +0.000 OA
ATOM     34  C   UNL     1       8.543   1.056   0.000  0.00  0.00    +0.000 C 
ENDBRANCH   8  33
BRANCH  12  35
ATOM     35  O   UNL     1       6.407   3.127   0.000  0.00  0.00    +0.000 OA
ATOM     36  C   UNL     1       5.695   3.542   0.000  0.00  0.00    +0.000 C 
ENDBRANCH  12  35
BRANCH   9  37
ATOM     37  O   UNL     1       7.833   2.297   0.000  0.00  0.00    +0.000 OA
BRANCH  37  39
ATOM     38  O   UNL     1       7.123   3.537   0.000  0.00  0.00    +0.000 OA
ATOM     39  C   UNL     1       7.836   3.122   0.000  0.00  0.00    +0.000 C 
BRANCH  39  40
ATOM     40  C   UNL     1       8.552   3.531   0.000  0.00  0.00    +0.000 C 
BRANCH  40  42
ATOM     41  O   UNL     1       9.381   4.353   0.000  0.00  0.00    +0.000 OA
ATOM     42  C   UNL     1       8.556   4.356   0.000  0.00  0.00    +0.000 C 
ATOM     43  C   UNL     1       7.731   4.360   0.000  0.00  0.00    +0.000 C 
BRANCH  42  44
ATOM     44  C   UNL     1       8.559   5.181   0.000  0.00  0.00    +0.000 C 
BRANCH  44  47
ATOM     45  O   UNL     1       9.278   6.416   0.000  0.00  0.00    +0.000 OA
ATOM     46  O   UNL     1       9.988   5.176   0.000  0.00  0.00    +0.000 OA
ATOM     47  C   UNL     1       9.275   5.591   0.000  0.00  0.00    +0.000 C 
ENDBRANCH  44  47
ENDBRANCH  42  44
ENDBRANCH  40  42
ENDBRANCH  39  40
ENDBRANCH  37  39
ENDBRANCH   9  37
TORSDOF 13
