REMARK  Name = 131752207
REMARK  10 active torsions:
REMARK  status: ('A' for Active; 'I' for Inactive)
REMARK    1  A    between atoms: O_2  and  C_23
REMARK    2  A    between atoms: O_2  and  C_26
REMARK    3  A    between atoms: O_5  and  C_21
REMARK    4  A    between atoms: O_5  and  C_31
REMARK    5  A    between atoms: O_7  and  C_22
REMARK    6  A    between atoms: O_7  and  C_30
REMARK    7  A    between atoms: C_18  and  C_26
REMARK    8  A    between atoms: C_31  and  C_35
REMARK    9  A    between atoms: C_32  and  C_36
REMARK   10  A    between atoms: C_39  and  C_45
REMARK                            x       y       z     vdW  Elec       q    Type
REMARK                         _______ _______ _______ _____ _____    ______ ____
ROOT
ATOM      1  O   UNL     1       7.094   0.511   0.000  0.00  0.00    +0.000 OA
ATOM      2  O   UNL     1       5.665  -1.139   0.000  0.00  0.00    +0.000 OA
ATOM      3  O   UNL     1       7.094  -1.964   0.000  0.00  0.00    +0.000 OA
ATOM      4  C   UNL     1       6.380   0.098   0.000  0.00  0.00    +0.000 C 
ATOM      5  C   UNL     1       6.380  -0.727   0.000  0.00  0.00    +0.000 C 
ATOM      6  C   UNL     1       7.094  -1.139   0.000  0.00  0.00    +0.000 C 
ATOM      7  C   UNL     1       7.809  -0.727   0.000  0.00  0.00    +0.000 C 
ATOM      8  C   UNL     1       7.809   0.098   0.000  0.00  0.00    +0.000 C 
ENDROOT
BRANCH   7   9
ATOM      9  O   UNL     1       8.523  -1.139   0.000  0.00  0.00    +0.000 OA
BRANCH   9  11
ATOM     10  O   UNL     1       7.809  -2.377   0.000  0.00  0.00    +0.000 OA
ATOM     11  C   UNL     1       8.523  -1.964   0.000  0.00  0.00    +0.000 C 
BRANCH  11  12
ATOM     12  C   UNL     1       9.238  -2.377   0.000  0.00  0.00    +0.000 C 
ATOM     13  C   UNL     1       9.238  -3.202   0.000  0.00  0.00    +0.000 C 
BRANCH  13  15
ATOM     14  O   UNL     1      12.096  -4.852   0.000  0.00  0.00    +0.000 OA
ATOM     15  C   UNL     1       9.952  -3.614   0.000  0.00  0.00    +0.000 A 
ATOM     16  C   UNL     1      10.667  -3.202   0.000  0.00  0.00    +0.000 A 
ATOM     17  C   UNL     1       9.952  -4.439   0.000  0.00  0.00    +0.000 A 
ATOM     18  C   UNL     1      11.381  -3.614   0.000  0.00  0.00    +0.000 A 
ATOM     19  C   UNL     1      10.667  -4.852   0.000  0.00  0.00    +0.000 A 
ATOM     20  C   UNL     1      11.381  -4.439   0.000  0.00  0.00    +0.000 A 
ENDBRANCH  13  15
ENDBRANCH  11  12
ENDBRANCH   9  11
ENDBRANCH   7   9
BRANCH   8  21
ATOM     21  O   UNL     1       8.523   0.511   0.000  0.00  0.00    +0.000 OA
BRANCH  21  26
ATOM     22  O   UNL     1       9.238   2.573   0.000  0.00  0.00    +0.000 OA
ATOM     23  O   UNL     1       7.094   1.336   0.000  0.00  0.00    +0.000 OA
ATOM     24  O   UNL     1       6.348   2.571   0.000  0.00  0.00    +0.000 OA
ATOM     25  O   UNL     1       7.799   5.106   0.000  0.00  0.00    +0.000 OA
ATOM     26  C   UNL     1       8.523   1.336   0.000  0.00  0.00    +0.000 A 
ATOM     27  C   UNL     1       9.238   1.748   0.000  0.00  0.00    +0.000 A 
ATOM     28  C   UNL     1       7.809   1.748   0.000  0.00  0.00    +0.000 A 
ATOM     29  C   UNL     1       7.809   2.573   0.000  0.00  0.00    +0.000 A 
ATOM     30  C   UNL     1       8.523   2.986   0.000  0.00  0.00    +0.000 A 
ATOM     31  C   UNL     1       7.058   2.992   0.000  0.00  0.00    +0.000 A 
ATOM     32  C   UNL     1       8.536   3.845   0.000  0.00  0.00    +0.000 A 
ATOM     33  C   UNL     1       7.051   3.851   0.000  0.00  0.00    +0.000 A 
ATOM     34  C   UNL     1       7.796   4.281   0.000  0.00  0.00    +0.000 A 
BRANCH  27  36
ATOM     35  O   UNL     1      12.096   0.098   0.000  0.00  0.00    +0.000 OA
ATOM     36  C   UNL     1       9.952   1.336   0.000  0.00  0.00    +0.000 A 
ATOM     37  C   UNL     1       9.952   0.511   0.000  0.00  0.00    +0.000 A 
ATOM     38  C   UNL     1      10.667   1.748   0.000  0.00  0.00    +0.000 A 
ATOM     39  C   UNL     1      10.667   0.098   0.000  0.00  0.00    +0.000 A 
ATOM     40  C   UNL     1      11.381   1.336   0.000  0.00  0.00    +0.000 A 
ATOM     41  C   UNL     1      11.381   0.511   0.000  0.00  0.00    +0.000 A 
ENDBRANCH  27  36
ENDBRANCH  21  26
ENDBRANCH   8  21
BRANCH   4  42
ATOM     42  C   UNL     1       5.665   0.511   0.000  0.00  0.00    +0.000 C 
BRANCH  42  43
ATOM     43  O   UNL     1       4.951   0.098   0.000  0.00  0.00    +0.000 OA
BRANCH  43  48
ATOM     44  O   UNL     1       3.522   0.098   0.000  0.00  0.00    +0.000 OA
ATOM     45  O   UNL     1       4.951   1.748   0.000  0.00  0.00    +0.000 OA
ATOM     46  O   UNL     1       3.522   2.573   0.000  0.00  0.00    +0.000 OA
ATOM     47  O   UNL     1       2.093   1.748   0.000  0.00  0.00    +0.000 OA
ATOM     48  C   UNL     1       4.236   0.511   0.000  0.00  0.00    +0.000 C 
ATOM     49  C   UNL     1       4.236   1.336   0.000  0.00  0.00    +0.000 C 
ATOM     50  C   UNL     1       3.522   1.748   0.000  0.00  0.00    +0.000 C 
ATOM     51  C   UNL     1       2.808   1.336   0.000  0.00  0.00    +0.000 C 
ATOM     52  C   UNL     1       2.808   0.511   0.000  0.00  0.00    +0.000 C 
ATOM     53  C   UNL     1       2.093   0.098   0.000  0.00  0.00    +0.000 C 
ENDBRANCH  43  48
ENDBRANCH  42  43
ENDBRANCH   4  42
TORSDOF 10
