REMARK  Name = 12960459
REMARK  10 active torsions:
REMARK  status: ('A' for Active; 'I' for Inactive)
REMARK    1  A    between atoms: O_1  and  C_22
REMARK    2  A    between atoms: O_1  and  C_25
REMARK    3  A    between atoms: O_4  and  C_27
REMARK    4  A    between atoms: O_4  and  C_39
REMARK    5  A    between atoms: O_13  and  C_38
REMARK    6  A    between atoms: O_13  and  C_44
REMARK    7  A    between atoms: C_28  and  C_32
REMARK    8  A    between atoms: C_31  and  C_33
REMARK    9  A    between atoms: C_37  and  C_40
REMARK   10  A    between atoms: C_41  and  C_48
REMARK                            x       y       z     vdW  Elec       q    Type
REMARK                         _______ _______ _______ _____ _____    ______ ____
ROOT
ATOM      1  O   UNL     1       6.389   0.667   0.000  0.00  0.00    +0.000 OA
ATOM      2  O   UNL     1       4.245  -0.570   0.000  0.00  0.00    +0.000 OA
ATOM      3  O   UNL     1       3.499   0.665   0.000  0.00  0.00    +0.000 OA
ATOM      4  C   UNL     1       5.674  -0.570   0.000  0.00  0.00    +0.000 A 
ATOM      5  C   UNL     1       6.389  -0.158   0.000  0.00  0.00    +0.000 A 
ATOM      6  C   UNL     1       4.960  -0.158   0.000  0.00  0.00    +0.000 A 
ATOM      7  C   UNL     1       4.960   0.667   0.000  0.00  0.00    +0.000 A 
ATOM      8  C   UNL     1       4.947   2.374   0.000  0.00  0.00    +0.000 A 
ATOM      9  C   UNL     1       5.674   1.080   0.000  0.00  0.00    +0.000 A 
ATOM     10  C   UNL     1       5.688   1.939   0.000  0.00  0.00    +0.000 A 
ATOM     11  C   UNL     1       4.209   1.085   0.000  0.00  0.00    +0.000 A 
ATOM     12  C   UNL     1       4.202   1.945   0.000  0.00  0.00    +0.000 A 
ENDROOT
BRANCH   5  14
ATOM     13  O   UNL     1       9.247  -1.808   0.000  0.00  0.00    +0.000 OA
ATOM     14  C   UNL     1       7.103  -0.570   0.000  0.00  0.00    +0.000 A 
ATOM     15  C   UNL     1       7.103  -1.395   0.000  0.00  0.00    +0.000 A 
ATOM     16  C   UNL     1       7.818  -0.158   0.000  0.00  0.00    +0.000 A 
ATOM     17  C   UNL     1       7.818  -1.808   0.000  0.00  0.00    +0.000 A 
ATOM     18  C   UNL     1       8.532  -0.570   0.000  0.00  0.00    +0.000 A 
ATOM     19  C   UNL     1       8.532  -1.395   0.000  0.00  0.00    +0.000 A 
ENDBRANCH   5  14
BRANCH   4  20
ATOM     20  O   UNL     1       5.674  -1.395   0.000  0.00  0.00    +0.000 OA
BRANCH  20  27
ATOM     21  O   UNL     1       4.245  -1.395   0.000  0.00  0.00    +0.000 OA
ATOM     22  O   UNL     1       4.245  -3.870   0.000  0.00  0.00    +0.000 OA
ATOM     23  O   UNL     1       2.816  -3.045   0.000  0.00  0.00    +0.000 OA
ATOM     24  C   UNL     1       4.960  -2.633   0.000  0.00  0.00    +0.000 C 
ATOM     25  C   UNL     1       4.245  -3.045   0.000  0.00  0.00    +0.000 C 
ATOM     26  C   UNL     1       3.531  -2.633   0.000  0.00  0.00    +0.000 C 
ATOM     27  C   UNL     1       4.960  -1.808   0.000  0.00  0.00    +0.000 C 
ATOM     28  C   UNL     1       3.531  -1.808   0.000  0.00  0.00    +0.000 C 
BRANCH  28  30
ATOM     29  O   UNL     1       2.102  -1.808   0.000  0.00  0.00    +0.000 OA
ATOM     30  C   UNL     1       2.816  -1.395   0.000  0.00  0.00    +0.000 C 
ENDBRANCH  28  30
BRANCH  24  31
ATOM     31  O   UNL     1       5.674  -3.045   0.000  0.00  0.00    +0.000 OA
BRANCH  31  36
ATOM     32  O   UNL     1       4.960  -4.283   0.000  0.00  0.00    +0.000 OA
ATOM     33  O   UNL     1       7.103  -3.870   0.000  0.00  0.00    +0.000 OA
ATOM     34  O   UNL     1       7.103  -5.520   0.000  0.00  0.00    +0.000 OA
ATOM     35  O   UNL     1       5.674  -6.345   0.000  0.00  0.00    +0.000 OA
ATOM     36  C   UNL     1       5.674  -3.870   0.000  0.00  0.00    +0.000 C 
ATOM     37  C   UNL     1       6.389  -4.283   0.000  0.00  0.00    +0.000 C 
ATOM     38  C   UNL     1       6.389  -5.108   0.000  0.00  0.00    +0.000 C 
ATOM     39  C   UNL     1       5.674  -5.520   0.000  0.00  0.00    +0.000 C 
ATOM     40  C   UNL     1       4.960  -5.108   0.000  0.00  0.00    +0.000 C 
BRANCH  40  42
ATOM     41  O   UNL     1       3.531  -5.108   0.000  0.00  0.00    +0.000 OA
ATOM     42  C   UNL     1       4.245  -5.520   0.000  0.00  0.00    +0.000 C 
ENDBRANCH  40  42
ENDBRANCH  31  36
ENDBRANCH  24  31
ENDBRANCH  20  27
ENDBRANCH   4  20
BRANCH   8  43
ATOM     43  O   UNL     1       4.950   3.199   0.000  0.00  0.00    +0.000 OA
BRANCH  43  52
ATOM     44  O   UNL     1       4.240   4.440   0.000  0.00  0.00    +0.000 OA
ATOM     45  O   UNL     1       2.092   3.210   0.000  0.00  0.00    +0.000 OA
ATOM     46  O   UNL     1       2.098   4.860   0.000  0.00  0.00    +0.000 OA
ATOM     47  O   UNL     1       3.518   2.380   0.000  0.00  0.00    +0.000 OA
ATOM     48  C   UNL     1       2.808   3.620   0.000  0.00  0.00    +0.000 C 
ATOM     49  C   UNL     1       2.811   4.445   0.000  0.00  0.00    +0.000 C 
ATOM     50  C   UNL     1       3.521   3.205   0.000  0.00  0.00    +0.000 C 
ATOM     51  C   UNL     1       3.527   4.855   0.000  0.00  0.00    +0.000 C 
ATOM     52  C   UNL     1       4.237   3.615   0.000  0.00  0.00    +0.000 C 
BRANCH  51  54
ATOM     53  O   UNL     1       4.247   6.090   0.000  0.00  0.00    +0.000 OA
ATOM     54  C   UNL     1       3.530   5.680   0.000  0.00  0.00    +0.000 C 
ENDBRANCH  51  54
ENDBRANCH  43  52
ENDBRANCH   8  43
TORSDOF 10
