REMARK  Name = 14825845
REMARK  6 active torsions:
REMARK  status: ('A' for Active; 'I' for Inactive)
REMARK    1  A    between atoms: O_2  and  C_17
REMARK    2  A    between atoms: O_2  and  C_19
REMARK    3  A    between atoms: O_8  and  C_20
REMARK    4  A    between atoms: O_11  and  C_32
REMARK    5  A    between atoms: C_16  and  C_18
REMARK    6  A    between atoms: C_26  and  C_28
REMARK                            x       y       z     vdW  Elec       q    Type
REMARK                         _______ _______ _______ _____ _____    ______ ____
ROOT
ATOM      1  O   UNL     1       7.131   1.101   0.000  0.00  0.00    +0.000 OA
ATOM      2  O   UNL     1       4.236   1.095   0.000  0.00  0.00    +0.000 OA
ATOM      3  O   UNL     1       4.933   2.359   0.000  0.00  0.00    +0.000 OA
ATOM      4  C   UNL     1       5.665  -0.555   0.000  0.00  0.00    +0.000 A 
ATOM      5  C   UNL     1       6.380  -0.142   0.000  0.00  0.00    +0.000 A 
ATOM      6  C   UNL     1       4.951  -0.142   0.000  0.00  0.00    +0.000 A 
ATOM      7  C   UNL     1       6.380   0.683   0.000  0.00  0.00    +0.000 A 
ATOM      8  C   UNL     1       5.665   1.095   0.000  0.00  0.00    +0.000 A 
ATOM      9  C   UNL     1       4.951   0.683   0.000  0.00  0.00    +0.000 A 
ATOM     10  C   UNL     1       5.652   1.954   0.000  0.00  0.00    +0.000 A 
ATOM     11  C   UNL     1       7.137   1.960   0.000  0.00  0.00    +0.000 A 
ATOM     12  C   UNL     1       6.393   2.390   0.000  0.00  0.00    +0.000 A 
ENDROOT
BRANCH  11  14
ATOM     13  O   UNL     1      10.001   3.599   0.000  0.00  0.00    +0.000 OA
ATOM     14  C   UNL     1       7.853   2.370   0.000  0.00  0.00    +0.000 A 
ATOM     15  C   UNL     1       8.566   1.955   0.000  0.00  0.00    +0.000 A 
ATOM     16  C   UNL     1       7.856   3.195   0.000  0.00  0.00    +0.000 A 
ATOM     17  C   UNL     1       9.282   2.364   0.000  0.00  0.00    +0.000 A 
ATOM     18  C   UNL     1       8.572   3.605   0.000  0.00  0.00    +0.000 A 
ATOM     19  C   UNL     1       9.285   3.189   0.000  0.00  0.00    +0.000 A 
BRANCH  17  20
ATOM     20  O   UNL     1       9.995   1.949   0.000  0.00  0.00    +0.000 OA
ATOM     21  C   UNL     1      10.711   2.359   0.000  0.00  0.00    +0.000 C 
ENDBRANCH  17  20
ENDBRANCH  11  14
BRANCH   5  22
ATOM     22  O   UNL     1       7.094  -0.555   0.000  0.00  0.00    +0.000 OA
ATOM     23  C   UNL     1       7.094  -1.380   0.000  0.00  0.00    +0.000 C 
ENDBRANCH   5  22
BRANCH   4  24
ATOM     24  O   UNL     1       5.665  -1.380   0.000  0.00  0.00    +0.000 OA
BRANCH  24  33
ATOM     25  O   UNL     1       4.236  -1.380   0.000  0.00  0.00    +0.000 OA
ATOM     26  O   UNL     1       4.236  -3.855   0.000  0.00  0.00    +0.000 OA
ATOM     27  O   UNL     1       2.808  -3.030   0.000  0.00  0.00    +0.000 OA
ATOM     28  O   UNL     1       5.665  -3.030   0.000  0.00  0.00    +0.000 OA
ATOM     29  C   UNL     1       4.236  -3.030   0.000  0.00  0.00    +0.000 C 
ATOM     30  C   UNL     1       3.522  -2.617   0.000  0.00  0.00    +0.000 C 
ATOM     31  C   UNL     1       4.951  -2.617   0.000  0.00  0.00    +0.000 C 
ATOM     32  C   UNL     1       3.522  -1.792   0.000  0.00  0.00    +0.000 C 
ATOM     33  C   UNL     1       4.951  -1.792   0.000  0.00  0.00    +0.000 C 
BRANCH  32  35
ATOM     34  O   UNL     1       2.093  -1.792   0.000  0.00  0.00    +0.000 OA
ATOM     35  C   UNL     1       2.808  -1.380   0.000  0.00  0.00    +0.000 C 
ENDBRANCH  32  35
ENDBRANCH  24  33
ENDBRANCH   4  24
TORSDOF 6
