REMARK  Name = 44258168
REMARK  11 active torsions:
REMARK  status: ('A' for Active; 'I' for Inactive)
REMARK    1  A    between atoms: O_1  and  C_19
REMARK    2  A    between atoms: O_1  and  C_24
REMARK    3  A    between atoms: O_10  and  C_31
REMARK    4  A    between atoms: O_10  and  C_40
REMARK    5  A    between atoms: O_16  and  C_46
REMARK    6  A    between atoms: C_21  and  C_29
REMARK    7  A    between atoms: C_23  and  C_30
REMARK    8  A    between atoms: C_28  and  C_31
REMARK    9  A    between atoms: C_39  and  C_41
REMARK   10  A    between atoms: C_40  and  C_42
REMARK   11  A    between atoms: C_45  and  C_49
REMARK                            x       y       z     vdW  Elec       q    Type
REMARK                         _______ _______ _______ _____ _____    ______ ____
ROOT
ATOM      1  O   UNL     1      11.381   1.407   0.000  0.00  0.00    +0.000 OA
ATOM      2  O   UNL     1       9.238   0.170   0.000  0.00  0.00    +0.000 OA
ATOM      3  O   UNL     1       9.238   1.819   0.000  0.00  0.00    +0.000 OA
ATOM      4  C   UNL     1      10.667   0.170   0.000  0.00  0.00    +0.000 C 
ATOM      5  C   UNL     1       9.952   0.582   0.000  0.00  0.00    +0.000 C 
ATOM      6  C   UNL     1      11.381   0.582   0.000  0.00  0.00    +0.000 C 
ATOM      7  C   UNL     1       9.952   1.407   0.000  0.00  0.00    +0.000 C 
ATOM      8  C   UNL     1      10.667   1.819   0.000  0.00  0.00    +0.000 C 
ENDROOT
BRANCH   6  13
ATOM      9  O   UNL     1      12.810   1.407   0.000  0.00  0.00    +0.000 OA
ATOM     10  O   UNL     1      11.381  -1.068   0.000  0.00  0.00    +0.000 OA
ATOM     11  O   UNL     1      14.262  -1.097   0.000  0.00  0.00    +0.000 OA
ATOM     12  O   UNL     1      14.253   1.435   0.000  0.00  0.00    +0.000 OA
ATOM     13  C   UNL     1      12.096   0.170   0.000  0.00  0.00    +0.000 A 
ATOM     14  C   UNL     1      12.810   0.582   0.000  0.00  0.00    +0.000 A 
ATOM     15  C   UNL     1      12.096  -0.656   0.000  0.00  0.00    +0.000 A 
ATOM     16  C   UNL     1      13.525   0.170   0.000  0.00  0.00    +0.000 A 
ATOM     17  C   UNL     1      12.810  -1.068   0.000  0.00  0.00    +0.000 A 
ATOM     18  C   UNL     1      13.525  -0.656   0.000  0.00  0.00    +0.000 A 
ATOM     19  C   UNL     1      14.262   0.611   0.000  0.00  0.00    +0.000 A 
ATOM     20  C   UNL     1      15.010   0.187   0.000  0.00  0.00    +0.000 A 
ATOM     21  C   UNL     1      15.010  -0.673   0.000  0.00  0.00    +0.000 A 
BRANCH  21  23
ATOM     22  O   UNL     1      17.861  -2.334   0.000  0.00  0.00    +0.000 OA
ATOM     23  C   UNL     1      15.723  -1.088   0.000  0.00  0.00    +0.000 A 
ATOM     24  C   UNL     1      15.719  -1.913   0.000  0.00  0.00    +0.000 A 
ATOM     25  C   UNL     1      16.439  -0.678   0.000  0.00  0.00    +0.000 A 
ATOM     26  C   UNL     1      16.432  -2.328   0.000  0.00  0.00    +0.000 A 
ATOM     27  C   UNL     1      17.151  -1.093   0.000  0.00  0.00    +0.000 A 
ATOM     28  C   UNL     1      17.148  -1.919   0.000  0.00  0.00    +0.000 A 
BRANCH  26  29
ATOM     29  O   UNL     1      16.429  -3.153   0.000  0.00  0.00    +0.000 OA
ATOM     30  C   UNL     1      17.142  -3.568   0.000  0.00  0.00    +0.000 C 
ENDBRANCH  26  29
ENDBRANCH  21  23
ENDBRANCH   6  13
BRANCH   8  32
ATOM     31  O   UNL     1       9.952   3.057   0.000  0.00  0.00    +0.000 OA
ATOM     32  C   UNL     1      10.667   2.644   0.000  0.00  0.00    +0.000 C 
ENDBRANCH   8  32
BRANCH   4  33
ATOM     33  O   UNL     1      10.667  -0.656   0.000  0.00  0.00    +0.000 OA
BRANCH  33  38
ATOM     34  O   UNL     1       9.238  -0.656   0.000  0.00  0.00    +0.000 OA
ATOM     35  O   UNL     1      10.667  -2.306   0.000  0.00  0.00    +0.000 OA
ATOM     36  O   UNL     1       9.238  -3.131   0.000  0.00  0.00    +0.000 OA
ATOM     37  O   UNL     1       7.809  -2.306   0.000  0.00  0.00    +0.000 OA
ATOM     38  C   UNL     1       9.952  -1.068   0.000  0.00  0.00    +0.000 C 
ATOM     39  C   UNL     1       9.952  -1.893   0.000  0.00  0.00    +0.000 C 
ATOM     40  C   UNL     1       9.238  -2.306   0.000  0.00  0.00    +0.000 C 
ATOM     41  C   UNL     1       8.523  -1.893   0.000  0.00  0.00    +0.000 C 
ATOM     42  C   UNL     1       8.523  -1.068   0.000  0.00  0.00    +0.000 C 
BRANCH  42  43
ATOM     43  C   UNL     1       7.809  -0.656   0.000  0.00  0.00    +0.000 C 
BRANCH  43  44
ATOM     44  O   UNL     1       7.094  -1.068   0.000  0.00  0.00    +0.000 OA
BRANCH  44  46
ATOM     45  O   UNL     1       6.380   0.170   0.000  0.00  0.00    +0.000 OA
ATOM     46  C   UNL     1       6.380  -0.656   0.000  0.00  0.00    +0.000 C 
BRANCH  46  47
ATOM     47  C   UNL     1       5.665  -1.068   0.000  0.00  0.00    +0.000 C 
ATOM     48  C   UNL     1       4.951  -0.656   0.000  0.00  0.00    +0.000 C 
BRANCH  48  50
ATOM     49  O   UNL     1       2.093  -2.306   0.000  0.00  0.00    +0.000 OA
ATOM     50  C   UNL     1       4.236  -1.068   0.000  0.00  0.00    +0.000 A 
ATOM     51  C   UNL     1       3.522  -0.656   0.000  0.00  0.00    +0.000 A 
ATOM     52  C   UNL     1       4.236  -1.893   0.000  0.00  0.00    +0.000 A 
ATOM     53  C   UNL     1       2.808  -1.068   0.000  0.00  0.00    +0.000 A 
ATOM     54  C   UNL     1       3.522  -2.306   0.000  0.00  0.00    +0.000 A 
ATOM     55  C   UNL     1       2.808  -1.893   0.000  0.00  0.00    +0.000 A 
ENDBRANCH  48  50
ENDBRANCH  46  47
ENDBRANCH  44  46
ENDBRANCH  43  44
ENDBRANCH  42  43
ENDBRANCH  33  38
ENDBRANCH   4  33
TORSDOF 11
