REMARK  Name = 5320439
REMARK  5 active torsions:
REMARK  status: ('A' for Active; 'I' for Inactive)
REMARK    1  A    between atoms: O_2  and  C_17
REMARK    2  A    between atoms: O_2  and  C_19
REMARK    3  A    between atoms: O_8  and  C_21
REMARK    4  A    between atoms: C_16  and  C_18
REMARK    5  A    between atoms: C_26  and  C_28
REMARK                            x       y       z     vdW  Elec       q    Type
REMARK                         _______ _______ _______ _____ _____    ______ ____
ROOT
ATOM      1  O   UNL     1       5.652   1.038   0.000  0.00  0.00    +0.000 OA
ATOM      2  O   UNL     1       7.094  -1.472   0.000  0.00  0.00    +0.000 OA
ATOM      3  O   UNL     1       7.840  -0.236   0.000  0.00  0.00    +0.000 OA
ATOM      4  C   UNL     1       5.665  -1.472   0.000  0.00  0.00    +0.000 A 
ATOM      5  C   UNL     1       6.380  -1.059   0.000  0.00  0.00    +0.000 A 
ATOM      6  C   UNL     1       4.951  -1.059   0.000  0.00  0.00    +0.000 A 
ATOM      7  C   UNL     1       6.380  -0.234   0.000  0.00  0.00    +0.000 A 
ATOM      8  C   UNL     1       5.665   0.178   0.000  0.00  0.00    +0.000 A 
ATOM      9  C   UNL     1       4.951  -0.234   0.000  0.00  0.00    +0.000 A 
ATOM     10  C   UNL     1       7.131   0.184   0.000  0.00  0.00    +0.000 A 
ATOM     11  C   UNL     1       6.393   1.473   0.000  0.00  0.00    +0.000 A 
ATOM     12  C   UNL     1       7.137   1.044   0.000  0.00  0.00    +0.000 A 
ENDROOT
BRANCH  11  15
ATOM     13  O   UNL     1       7.812   3.954   0.000  0.00  0.00    +0.000 OA
ATOM     14  O   UNL     1       6.380   4.773   0.000  0.00  0.00    +0.000 OA
ATOM     15  C   UNL     1       6.390   2.298   0.000  0.00  0.00    +0.000 A 
ATOM     16  C   UNL     1       7.103   2.713   0.000  0.00  0.00    +0.000 A 
ATOM     17  C   UNL     1       5.674   2.708   0.000  0.00  0.00    +0.000 A 
ATOM     18  C   UNL     1       7.099   3.538   0.000  0.00  0.00    +0.000 A 
ATOM     19  C   UNL     1       5.671   3.533   0.000  0.00  0.00    +0.000 A 
ATOM     20  C   UNL     1       6.383   3.948   0.000  0.00  0.00    +0.000 A 
ENDBRANCH  11  15
BRANCH   6  21
ATOM     21  O   UNL     1       4.236  -1.472   0.000  0.00  0.00    +0.000 OA
ATOM     22  C   UNL     1       3.522  -1.059   0.000  0.00  0.00    +0.000 C 
ENDBRANCH   6  21
BRANCH   4  23
ATOM     23  O   UNL     1       5.665  -2.296   0.000  0.00  0.00    +0.000 OA
BRANCH  23  32
ATOM     24  O   UNL     1       4.236  -2.296   0.000  0.00  0.00    +0.000 OA
ATOM     25  O   UNL     1       4.236  -4.771   0.000  0.00  0.00    +0.000 OA
ATOM     26  O   UNL     1       2.808  -3.946   0.000  0.00  0.00    +0.000 OA
ATOM     27  O   UNL     1       5.665  -3.946   0.000  0.00  0.00    +0.000 OA
ATOM     28  C   UNL     1       4.236  -3.946   0.000  0.00  0.00    +0.000 C 
ATOM     29  C   UNL     1       3.522  -3.534   0.000  0.00  0.00    +0.000 C 
ATOM     30  C   UNL     1       4.951  -3.534   0.000  0.00  0.00    +0.000 C 
ATOM     31  C   UNL     1       3.522  -2.709   0.000  0.00  0.00    +0.000 C 
ATOM     32  C   UNL     1       4.951  -2.709   0.000  0.00  0.00    +0.000 C 
BRANCH  31  34
ATOM     33  O   UNL     1       2.093  -2.709   0.000  0.00  0.00    +0.000 OA
ATOM     34  C   UNL     1       2.808  -2.296   0.000  0.00  0.00    +0.000 C 
ENDBRANCH  31  34
ENDBRANCH  23  32
ENDBRANCH   4  23
TORSDOF 5
