REMARK  Name = 14583632
REMARK  3 active torsions:
REMARK  status: ('A' for Active; 'I' for Inactive)
REMARK    1  A    between atoms: O_2  and  C_11
REMARK    2  A    between atoms: O_4  and  C_14
REMARK    3  A    between atoms: C_5  and  C_10
REMARK                            x       y       z     vdW  Elec       q    Type
REMARK                         _______ _______ _______ _____ _____    ______ ____
ROOT
ATOM      1  O   UNL     1       4.531  -0.842   0.000  0.00  0.00    +0.000 OA
ATOM      2  O   UNL     1       4.521   1.690   0.000  0.00  0.00    +0.000 OA
ATOM      3  C   UNL     1       5.278  -0.418   0.000  0.00  0.00    +0.000 C 
ATOM      4  C   UNL     1       5.278   0.441   0.000  0.00  0.00    +0.000 C 
ATOM      5  C   UNL     1       3.793   0.424   0.000  0.00  0.00    +0.000 A 
ATOM      6  C   UNL     1       3.793  -0.401   0.000  0.00  0.00    +0.000 A 
ATOM      7  C   UNL     1       4.531   0.865   0.000  0.00  0.00    +0.000 C 
ATOM      8  C   UNL     1       3.079   0.836   0.000  0.00  0.00    +0.000 A 
ATOM      9  C   UNL     1       2.364   0.424   0.000  0.00  0.00    +0.000 A 
ATOM     10  C   UNL     1       3.079  -0.814   0.000  0.00  0.00    +0.000 A 
ATOM     11  C   UNL     1       2.364  -0.401   0.000  0.00  0.00    +0.000 A 
ATOM     12  C   UNL     1       1.650   0.836   0.000  0.00  0.00    +0.000 C 
ENDROOT
BRANCH   3  13
ATOM     13  C   UNL     1       5.991  -0.834   0.000  0.00  0.00    +0.000 A 
ATOM     14  C   UNL     1       6.707  -0.424   0.000  0.00  0.00    +0.000 A 
ATOM     15  C   UNL     1       5.988  -1.659   0.000  0.00  0.00    +0.000 A 
ATOM     16  C   UNL     1       7.420  -0.839   0.000  0.00  0.00    +0.000 A 
ATOM     17  C   UNL     1       6.701  -2.074   0.000  0.00  0.00    +0.000 A 
ATOM     18  C   UNL     1       7.417  -1.664   0.000  0.00  0.00    +0.000 A 
ENDBRANCH   3  13
BRANCH   8  19
ATOM     19  O   UNL     1       3.079   1.661   0.000  0.00  0.00    +0.000 OA
ATOM     20  C   UNL     1       2.364   2.074   0.000  0.00  0.00    +0.000 C 
ENDBRANCH   8  19
BRANCH  11  21
ATOM     21  O   UNL     1       1.650  -0.814   0.000  0.00  0.00    +0.000 OA
ATOM     22  C   UNL     1       1.650  -1.639   0.000  0.00  0.00    +0.000 C 
ENDBRANCH  11  21
TORSDOF 3
