REMARK  Name = 44258692
REMARK  4 active torsions:
REMARK  status: ('A' for Active; 'I' for Inactive)
REMARK    1  A    between atoms: O_2  and  C_15
REMARK    2  A    between atoms: O_2  and  C_17
REMARK    3  A    between atoms: O_10  and  C_31
REMARK    4  A    between atoms: C_24  and  C_26
REMARK                            x       y       z     vdW  Elec       q    Type
REMARK                         _______ _______ _______ _____ _____    ______ ____
ROOT
ATOM      1  O   UNL     1       6.399   1.394   0.000  0.00  0.00    +0.000 OA
ATOM      2  O   UNL     1       3.491  -0.282   0.000  0.00  0.00    +0.000 OA
ATOM      3  O   UNL     1       5.693   3.459   0.000  0.00  0.00    +0.000 OA
ATOM      4  O   UNL     1       4.261   2.640   0.000  0.00  0.00    +0.000 OA
ATOM      5  C   UNL     1       4.951  -0.308   0.000  0.00  0.00    +0.000 A 
ATOM      6  C   UNL     1       5.693   0.125   0.000  0.00  0.00    +0.000 A 
ATOM      7  C   UNL     1       4.208   0.125   0.000  0.00  0.00    +0.000 A 
ATOM      8  C   UNL     1       5.684   0.984   0.000  0.00  0.00    +0.000 A 
ATOM      9  C   UNL     1       4.971   1.399   0.000  0.00  0.00    +0.000 A 
ATOM     10  C   UNL     1       4.218   0.984   0.000  0.00  0.00    +0.000 A 
ATOM     11  C   UNL     1       4.974   2.224   0.000  0.00  0.00    +0.000 A 
ATOM     12  C   UNL     1       6.403   2.219   0.000  0.00  0.00    +0.000 A 
ATOM     13  C   UNL     1       5.690   2.634   0.000  0.00  0.00    +0.000 A 
ENDROOT
BRANCH  12  14
ATOM     14  C   UNL     1       7.119   2.629   0.000  0.00  0.00    +0.000 A 
ATOM     15  C   UNL     1       7.122   3.454   0.000  0.00  0.00    +0.000 A 
ATOM     16  C   UNL     1       7.832   2.213   0.000  0.00  0.00    +0.000 A 
ATOM     17  C   UNL     1       7.838   3.863   0.000  0.00  0.00    +0.000 A 
ATOM     18  C   UNL     1       8.548   2.623   0.000  0.00  0.00    +0.000 A 
ATOM     19  C   UNL     1       8.551   3.448   0.000  0.00  0.00    +0.000 A 
BRANCH  19  20
ATOM     20  O   UNL     1       9.267   3.858   0.000  0.00  0.00    +0.000 OA
ATOM     21  C   UNL     1       9.980   3.443   0.000  0.00  0.00    +0.000 C 
ENDBRANCH  19  20
ENDBRANCH  12  14
BRANCH   5  22
ATOM     22  O   UNL     1       4.951  -1.133   0.000  0.00  0.00    +0.000 OA
BRANCH  22  31
ATOM     23  O   UNL     1       3.522  -1.133   0.000  0.00  0.00    +0.000 OA
ATOM     24  O   UNL     1       3.522  -3.608   0.000  0.00  0.00    +0.000 OA
ATOM     25  O   UNL     1       2.093  -2.783   0.000  0.00  0.00    +0.000 OA
ATOM     26  O   UNL     1       4.951  -2.783   0.000  0.00  0.00    +0.000 OA
ATOM     27  C   UNL     1       3.522  -2.783   0.000  0.00  0.00    +0.000 C 
ATOM     28  C   UNL     1       2.808  -2.370   0.000  0.00  0.00    +0.000 C 
ATOM     29  C   UNL     1       4.236  -2.370   0.000  0.00  0.00    +0.000 C 
ATOM     30  C   UNL     1       2.808  -1.545   0.000  0.00  0.00    +0.000 C 
ATOM     31  C   UNL     1       4.236  -1.545   0.000  0.00  0.00    +0.000 C 
ATOM     32  C   UNL     1       2.093  -1.133   0.000  0.00  0.00    +0.000 C 
ENDBRANCH  22  31
ENDBRANCH   5  22
TORSDOF 4
