REMARK  Name = 131752543
REMARK  14 active torsions:
REMARK  status: ('A' for Active; 'I' for Inactive)
REMARK    1  A    between atoms: O_2  and  C_22
REMARK    2  A    between atoms: O_2  and  C_24
REMARK    3  A    between atoms: O_6  and  C_23
REMARK    4  A    between atoms: O_6  and  C_25
REMARK    5  A    between atoms: O_7  and  C_28
REMARK    6  A    between atoms: O_8  and  C_29
REMARK    7  A    between atoms: O_12  and  C_33
REMARK    8  A    between atoms: O_12  and  C_43
REMARK    9  A    between atoms: O_15  and  C_44
REMARK   10  A    between atoms: C_20  and  C_23
REMARK   11  A    between atoms: C_25  and  C_26
REMARK   12  A    between atoms: C_26  and  C_27
REMARK   13  A    between atoms: C_27  and  C_33
REMARK   14  A    between atoms: C_36  and  C_40
REMARK                            x       y       z     vdW  Elec       q    Type
REMARK                         _______ _______ _______ _____ _____    ______ ____
ROOT
ATOM      1  O   UNL     1      11.689   1.101   0.000  0.00  0.00    +0.000 OA
ATOM      2  O   UNL     1       8.795   1.095   0.000  0.00  0.00    +0.000 OA
ATOM      3  O   UNL     1       9.491   2.359   0.000  0.00  0.00    +0.000 OA
ATOM      4  C   UNL     1      10.224  -0.555   0.000  0.00  0.00    +0.000 A 
ATOM      5  C   UNL     1      10.938  -0.142   0.000  0.00  0.00    +0.000 A 
ATOM      6  C   UNL     1       9.509  -0.142   0.000  0.00  0.00    +0.000 A 
ATOM      7  C   UNL     1      10.938   0.683   0.000  0.00  0.00    +0.000 A 
ATOM      8  C   UNL     1       9.509   0.683   0.000  0.00  0.00    +0.000 A 
ATOM      9  C   UNL     1      10.224   1.095   0.000  0.00  0.00    +0.000 A 
ATOM     10  C   UNL     1      10.210   1.954   0.000  0.00  0.00    +0.000 A 
ATOM     11  C   UNL     1      11.696   1.960   0.000  0.00  0.00    +0.000 A 
ATOM     12  C   UNL     1      10.951   2.390   0.000  0.00  0.00    +0.000 A 
ENDROOT
BRANCH  11  14
ATOM     13  O   UNL     1      14.560   3.599   0.000  0.00  0.00    +0.000 OA
ATOM     14  C   UNL     1      12.412   2.370   0.000  0.00  0.00    +0.000 A 
ATOM     15  C   UNL     1      13.125   1.955   0.000  0.00  0.00    +0.000 A 
ATOM     16  C   UNL     1      12.415   3.195   0.000  0.00  0.00    +0.000 A 
ATOM     17  C   UNL     1      13.841   2.364   0.000  0.00  0.00    +0.000 A 
ATOM     18  C   UNL     1      13.131   3.605   0.000  0.00  0.00    +0.000 A 
ATOM     19  C   UNL     1      13.844   3.189   0.000  0.00  0.00    +0.000 A 
BRANCH  17  20
ATOM     20  O   UNL     1      14.553   1.949   0.000  0.00  0.00    +0.000 OA
ATOM     21  C   UNL     1      15.270   2.359   0.000  0.00  0.00    +0.000 C 
ENDBRANCH  17  20
ENDBRANCH  11  14
BRANCH   5  22
ATOM     22  O   UNL     1      11.653  -0.555   0.000  0.00  0.00    +0.000 OA
ATOM     23  C   UNL     1      11.653  -1.380   0.000  0.00  0.00    +0.000 C 
ENDBRANCH   5  22
BRANCH   6  24
ATOM     24  O   UNL     1       8.795  -0.555   0.000  0.00  0.00    +0.000 OA
ATOM     25  C   UNL     1       8.080  -0.142   0.000  0.00  0.00    +0.000 C 
ENDBRANCH   6  24
BRANCH   4  26
ATOM     26  O   UNL     1      10.224  -1.380   0.000  0.00  0.00    +0.000 OA
BRANCH  26  35
ATOM     27  O   UNL     1       8.795  -1.380   0.000  0.00  0.00    +0.000 OA
ATOM     28  O   UNL     1       7.366  -3.030   0.000  0.00  0.00    +0.000 OA
ATOM     29  O   UNL     1       8.795  -3.855   0.000  0.00  0.00    +0.000 OA
ATOM     30  O   UNL     1      10.224  -3.030   0.000  0.00  0.00    +0.000 OA
ATOM     31  C   UNL     1       8.080  -2.617   0.000  0.00  0.00    +0.000 C 
ATOM     32  C   UNL     1       8.795  -3.030   0.000  0.00  0.00    +0.000 C 
ATOM     33  C   UNL     1       8.080  -1.792   0.000  0.00  0.00    +0.000 C 
ATOM     34  C   UNL     1       9.509  -2.617   0.000  0.00  0.00    +0.000 C 
ATOM     35  C   UNL     1       9.509  -1.792   0.000  0.00  0.00    +0.000 C 
BRANCH  33  36
ATOM     36  C   UNL     1       7.366  -1.380   0.000  0.00  0.00    +0.000 C 
BRANCH  36  37
ATOM     37  O   UNL     1       6.651  -1.792   0.000  0.00  0.00    +0.000 OA
BRANCH  37  39
ATOM     38  O   UNL     1       5.937  -0.555   0.000  0.00  0.00    +0.000 OA
ATOM     39  C   UNL     1       5.937  -1.380   0.000  0.00  0.00    +0.000 C 
BRANCH  39  40
ATOM     40  C   UNL     1       5.222  -1.792   0.000  0.00  0.00    +0.000 C 
BRANCH  40  42
ATOM     41  O   UNL     1       4.095  -2.094   0.000  0.00  0.00    +0.000 OA
ATOM     42  C   UNL     1       4.508  -1.380   0.000  0.00  0.00    +0.000 C 
ATOM     43  C   UNL     1       4.920  -0.665   0.000  0.00  0.00    +0.000 C 
BRANCH  42  44
ATOM     44  C   UNL     1       3.793  -0.967   0.000  0.00  0.00    +0.000 C 
BRANCH  44  45
ATOM     45  O   UNL     1       3.079  -1.380   0.000  0.00  0.00    +0.000 OA
BRANCH  45  47
ATOM     46  O   UNL     1       1.650  -1.380   0.000  0.00  0.00    +0.000 OA
ATOM     47  C   UNL     1       2.365  -0.967   0.000  0.00  0.00    +0.000 C 
ENDBRANCH  45  47
ENDBRANCH  44  45
ENDBRANCH  42  44
ENDBRANCH  40  42
ENDBRANCH  39  40
ENDBRANCH  37  39
ENDBRANCH  36  37
ENDBRANCH  33  36
ENDBRANCH  26  35
ENDBRANCH   4  26
TORSDOF 14
