REMARK  Name = 13988633
REMARK  7 active torsions:
REMARK  status: ('A' for Active; 'I' for Inactive)
REMARK    1  A    between atoms: O_3  and  C_24
REMARK    2  A    between atoms: O_3  and  C_28
REMARK    3  A    between atoms: O_6  and  C_27
REMARK    4  A    between atoms: O_6  and  C_30
REMARK    5  A    between atoms: C_18  and  C_28
REMARK    6  A    between atoms: C_26  and  C_29
REMARK    7  A    between atoms: C_37  and  C_39
REMARK                            x       y       z     vdW  Elec       q    Type
REMARK                         _______ _______ _______ _____ _____    ______ ____
ROOT
ATOM      1  O   UNL     1       6.380   0.683   0.000  0.00  0.00    +0.000 OA
ENDROOT
BRANCH   1   6
ATOM      2  O   UNL     1       6.416   2.338   0.000  0.00  0.00    +0.000 OA
ATOM      3  O   UNL     1       4.951  -0.142   0.000  0.00  0.00    +0.000 OA
ATOM      4  O   UNL     1       3.522   2.333   0.000  0.00  0.00    +0.000 OA
ATOM      5  O   UNL     1       4.218   3.596   0.000  0.00  0.00    +0.000 OA
ATOM      6  C   UNL     1       5.665   1.095   0.000  0.00  0.00    +0.000 A 
ATOM      7  C   UNL     1       5.665   1.920   0.000  0.00  0.00    +0.000 A 
ATOM      8  C   UNL     1       4.951   0.683   0.000  0.00  0.00    +0.000 A 
ATOM      9  C   UNL     1       4.951   2.333   0.000  0.00  0.00    +0.000 A 
ATOM     10  C   UNL     1       4.236   1.095   0.000  0.00  0.00    +0.000 A 
ATOM     11  C   UNL     1       4.236   1.920   0.000  0.00  0.00    +0.000 A 
ATOM     12  C   UNL     1       4.938   3.192   0.000  0.00  0.00    +0.000 A 
ATOM     13  C   UNL     1       6.423   3.198   0.000  0.00  0.00    +0.000 A 
ATOM     14  C   UNL     1       5.678   3.627   0.000  0.00  0.00    +0.000 A 
BRANCH  13  17
ATOM     15  O   UNL     1       9.281   3.187   0.000  0.00  0.00    +0.000 OA
ATOM     16  O   UNL     1       9.287   4.837   0.000  0.00  0.00    +0.000 OA
ATOM     17  C   UNL     1       7.139   3.607   0.000  0.00  0.00    +0.000 A 
ATOM     18  C   UNL     1       7.852   3.192   0.000  0.00  0.00    +0.000 A 
ATOM     19  C   UNL     1       7.142   4.432   0.000  0.00  0.00    +0.000 A 
ATOM     20  C   UNL     1       8.568   3.602   0.000  0.00  0.00    +0.000 A 
ATOM     21  C   UNL     1       7.858   4.842   0.000  0.00  0.00    +0.000 A 
ATOM     22  C   UNL     1       8.571   4.427   0.000  0.00  0.00    +0.000 A 
ENDBRANCH  13  17
ENDBRANCH   1   6
BRANCH   1  31
ATOM     23  O   UNL     1       5.665  -0.555   0.000  0.00  0.00    +0.000 OA
ATOM     24  O   UNL     1       6.380  -2.617   0.000  0.00  0.00    +0.000 OA
ATOM     25  O   UNL     1       7.809  -1.792   0.000  0.00  0.00    +0.000 OA
ATOM     26  O   UNL     1       7.809  -0.142   0.000  0.00  0.00    +0.000 OA
ATOM     27  C   UNL     1       5.665  -1.380   0.000  0.00  0.00    +0.000 C 
ATOM     28  C   UNL     1       6.380  -1.792   0.000  0.00  0.00    +0.000 C 
ATOM     29  C   UNL     1       7.094  -1.380   0.000  0.00  0.00    +0.000 C 
ATOM     30  C   UNL     1       7.094  -0.555   0.000  0.00  0.00    +0.000 C 
ATOM     31  C   UNL     1       6.380  -0.142   0.000  0.00  0.00    +0.000 C 
BRANCH  27  32
ATOM     32  C   UNL     1       4.951  -1.792   0.000  0.00  0.00    +0.000 C 
BRANCH  32  33
ATOM     33  O   UNL     1       4.951  -2.617   0.000  0.00  0.00    +0.000 OA
BRANCH  33  40
ATOM     34  O   UNL     1       3.522  -2.617   0.000  0.00  0.00    +0.000 OA
ATOM     35  O   UNL     1       4.951  -4.267   0.000  0.00  0.00    +0.000 OA
ATOM     36  O   UNL     1       3.522  -5.092   0.000  0.00  0.00    +0.000 OA
ATOM     37  O   UNL     1       2.093  -4.267   0.000  0.00  0.00    +0.000 OA
ATOM     38  C   UNL     1       4.236  -3.855   0.000  0.00  0.00    +0.000 C 
ATOM     39  C   UNL     1       3.522  -4.267   0.000  0.00  0.00    +0.000 C 
ATOM     40  C   UNL     1       4.236  -3.030   0.000  0.00  0.00    +0.000 C 
ATOM     41  C   UNL     1       2.808  -3.855   0.000  0.00  0.00    +0.000 C 
ATOM     42  C   UNL     1       2.808  -3.030   0.000  0.00  0.00    +0.000 C 
BRANCH  42  44
ATOM     43  O   UNL     1       2.093  -1.792   0.000  0.00  0.00    +0.000 OA
ATOM     44  C   UNL     1       2.093  -2.617   0.000  0.00  0.00    +0.000 C 
ENDBRANCH  42  44
ENDBRANCH  33  40
ENDBRANCH  32  33
ENDBRANCH  27  32
ENDBRANCH   1  31
TORSDOF 7
