REMARK  Name = 74978013
REMARK  8 active torsions:
REMARK  status: ('A' for Active; 'I' for Inactive)
REMARK    1  A    between atoms: O_1  and  C_20
REMARK    2  A    between atoms: O_1  and  C_25
REMARK    3  A    between atoms: O_3  and  C_22
REMARK    4  A    between atoms: O_3  and  C_33
REMARK    5  A    between atoms: O_13  and  C_35
REMARK    6  A    between atoms: O_13  and  C_38
REMARK    7  A    between atoms: C_27  and  C_33
REMARK    8  A    between atoms: C_39  and  C_42
REMARK                            x       y       z     vdW  Elec       q    Type
REMARK                         _______ _______ _______ _____ _____    ______ ____
ROOT
ATOM      1  O   UNL     1       5.721   1.316   0.000  0.00  0.00    +0.000 OA
ATOM      2  O   UNL     1       6.435  -0.747   0.000  0.00  0.00    +0.000 OA
ATOM      3  O   UNL     1       7.864   0.078   0.000  0.00  0.00    +0.000 OA
ATOM      4  O   UNL     1       7.864   1.728   0.000  0.00  0.00    +0.000 OA
ATOM      5  C   UNL     1       5.721   0.491   0.000  0.00  0.00    +0.000 C 
ATOM      6  C   UNL     1       6.435   0.078   0.000  0.00  0.00    +0.000 C 
ATOM      7  C   UNL     1       7.150   0.491   0.000  0.00  0.00    +0.000 C 
ATOM      8  C   UNL     1       7.150   1.316   0.000  0.00  0.00    +0.000 C 
ATOM      9  C   UNL     1       6.435   1.728   0.000  0.00  0.00    +0.000 C 
ENDROOT
BRANCH   9  10
ATOM     10  O   UNL     1       6.435   2.553   0.000  0.00  0.00    +0.000 OA
BRANCH  10  15
ATOM     11  O   UNL     1       5.006   4.203   0.000  0.00  0.00    +0.000 OA
ATOM     12  O   UNL     1       5.006   1.728   0.000  0.00  0.00    +0.000 OA
ATOM     13  O   UNL     1       3.564   1.700   0.000  0.00  0.00    +0.000 OA
ATOM     14  O   UNL     1       2.094   4.223   0.000  0.00  0.00    +0.000 OA
ATOM     15  C   UNL     1       5.721   2.966   0.000  0.00  0.00    +0.000 A 
ATOM     16  C   UNL     1       5.721   3.791   0.000  0.00  0.00    +0.000 A 
ATOM     17  C   UNL     1       5.006   2.553   0.000  0.00  0.00    +0.000 A 
ATOM     18  C   UNL     1       4.292   2.966   0.000  0.00  0.00    +0.000 A 
ATOM     19  C   UNL     1       4.292   3.791   0.000  0.00  0.00    +0.000 A 
ATOM     20  C   UNL     1       3.554   2.525   0.000  0.00  0.00    +0.000 A 
ATOM     21  C   UNL     1       3.554   4.232   0.000  0.00  0.00    +0.000 A 
ATOM     22  C   UNL     1       2.807   2.949   0.000  0.00  0.00    +0.000 A 
ATOM     23  C   UNL     1       2.807   3.808   0.000  0.00  0.00    +0.000 A 
BRANCH  16  25
ATOM     24  O   UNL     1       8.579   5.441   0.000  0.00  0.00    +0.000 OA
ATOM     25  C   UNL     1       6.435   4.203   0.000  0.00  0.00    +0.000 A 
ATOM     26  C   UNL     1       7.150   3.791   0.000  0.00  0.00    +0.000 A 
ATOM     27  C   UNL     1       6.435   5.028   0.000  0.00  0.00    +0.000 A 
ATOM     28  C   UNL     1       7.864   4.203   0.000  0.00  0.00    +0.000 A 
ATOM     29  C   UNL     1       7.150   5.441   0.000  0.00  0.00    +0.000 A 
ATOM     30  C   UNL     1       7.864   5.028   0.000  0.00  0.00    +0.000 A 
ENDBRANCH  16  25
ENDBRANCH  10  15
ENDBRANCH   9  10
BRANCH   5  31
ATOM     31  C   UNL     1       5.006   0.078   0.000  0.00  0.00    +0.000 C 
BRANCH  31  32
ATOM     32  O   UNL     1       5.006  -0.747   0.000  0.00  0.00    +0.000 OA
BRANCH  32  38
ATOM     33  O   UNL     1       3.577  -0.747   0.000  0.00  0.00    +0.000 OA
ATOM     34  O   UNL     1       3.577  -3.222   0.000  0.00  0.00    +0.000 OA
ATOM     35  O   UNL     1       2.148  -2.397   0.000  0.00  0.00    +0.000 OA
ATOM     36  C   UNL     1       4.292  -1.984   0.000  0.00  0.00    +0.000 C 
ATOM     37  C   UNL     1       3.577  -2.397   0.000  0.00  0.00    +0.000 C 
ATOM     38  C   UNL     1       4.292  -1.159   0.000  0.00  0.00    +0.000 C 
ATOM     39  C   UNL     1       2.863  -1.984   0.000  0.00  0.00    +0.000 C 
ATOM     40  C   UNL     1       2.863  -1.159   0.000  0.00  0.00    +0.000 C 
ATOM     41  C   UNL     1       2.148  -0.747   0.000  0.00  0.00    +0.000 C 
BRANCH  36  42
ATOM     42  O   UNL     1       5.006  -2.397   0.000  0.00  0.00    +0.000 OA
BRANCH  42  47
ATOM     43  O   UNL     1       4.292  -3.634   0.000  0.00  0.00    +0.000 OA
ATOM     44  O   UNL     1       6.435  -3.222   0.000  0.00  0.00    +0.000 OA
ATOM     45  O   UNL     1       6.435  -4.872   0.000  0.00  0.00    +0.000 OA
ATOM     46  O   UNL     1       5.006  -5.697   0.000  0.00  0.00    +0.000 OA
ATOM     47  C   UNL     1       5.006  -3.222   0.000  0.00  0.00    +0.000 C 
ATOM     48  C   UNL     1       5.721  -3.634   0.000  0.00  0.00    +0.000 C 
ATOM     49  C   UNL     1       5.721  -4.459   0.000  0.00  0.00    +0.000 C 
ATOM     50  C   UNL     1       5.006  -4.872   0.000  0.00  0.00    +0.000 C 
ATOM     51  C   UNL     1       4.292  -4.459   0.000  0.00  0.00    +0.000 C 
ATOM     52  C   UNL     1       3.577  -4.872   0.000  0.00  0.00    +0.000 C 
ENDBRANCH  42  47
ENDBRANCH  36  42
ENDBRANCH  32  38
ENDBRANCH  31  32
ENDBRANCH   5  31
TORSDOF 8
