REMARK  Name = 131752827
REMARK  8 active torsions:
REMARK  status: ('A' for Active; 'I' for Inactive)
REMARK    1  A    between atoms: O_2  and  C_18
REMARK    2  A    between atoms: O_2  and  C_20
REMARK    3  A    between atoms: O_10  and  C_31
REMARK    4  A    between atoms: O_10  and  C_35
REMARK    5  A    between atoms: C_17  and  C_19
REMARK    6  A    between atoms: C_21  and  C_25
REMARK    7  A    between atoms: C_35  and  C_36
REMARK    8  A    between atoms: C_37  and  C_38
REMARK                            x       y       z     vdW  Elec       q    Type
REMARK                         _______ _______ _______ _____ _____    ______ ____
ROOT
ATOM      1  O   UNL     1       6.380  -1.476   0.000  0.00  0.00    +0.000 OA
ATOM      2  O   UNL     1       4.236  -2.713   0.000  0.00  0.00    +0.000 OA
ATOM      3  O   UNL     1       3.490  -1.478   0.000  0.00  0.00    +0.000 OA
ATOM      4  C   UNL     1       5.665  -2.713   0.000  0.00  0.00    +0.000 A 
ATOM      5  C   UNL     1       6.380  -2.301   0.000  0.00  0.00    +0.000 A 
ATOM      6  C   UNL     1       4.951  -2.301   0.000  0.00  0.00    +0.000 A 
ATOM      7  C   UNL     1       4.951  -1.476   0.000  0.00  0.00    +0.000 A 
ATOM      8  C   UNL     1       5.665  -1.063   0.000  0.00  0.00    +0.000 A 
ATOM      9  C   UNL     1       4.200  -1.058   0.000  0.00  0.00    +0.000 A 
ATOM     10  C   UNL     1       5.679  -0.204   0.000  0.00  0.00    +0.000 A 
ATOM     11  C   UNL     1       4.194  -0.198   0.000  0.00  0.00    +0.000 A 
ATOM     12  C   UNL     1       4.938   0.231   0.000  0.00  0.00    +0.000 A 
ENDROOT
BRANCH   5  14
ATOM     13  O   UNL     1       9.238  -3.951   0.000  0.00  0.00    +0.000 OA
ATOM     14  C   UNL     1       7.094  -2.713   0.000  0.00  0.00    +0.000 A 
ATOM     15  C   UNL     1       7.094  -3.538   0.000  0.00  0.00    +0.000 A 
ATOM     16  C   UNL     1       7.809  -2.301   0.000  0.00  0.00    +0.000 A 
ATOM     17  C   UNL     1       7.809  -3.951   0.000  0.00  0.00    +0.000 A 
ATOM     18  C   UNL     1       8.523  -2.713   0.000  0.00  0.00    +0.000 A 
ATOM     19  C   UNL     1       8.523  -3.538   0.000  0.00  0.00    +0.000 A 
ENDBRANCH   5  14
BRANCH   4  20
ATOM     20  O   UNL     1       5.665  -3.538   0.000  0.00  0.00    +0.000 OA
BRANCH  20  29
ATOM     21  O   UNL     1       4.236  -3.538   0.000  0.00  0.00    +0.000 OA
ATOM     22  O   UNL     1       4.236  -6.013   0.000  0.00  0.00    +0.000 OA
ATOM     23  O   UNL     1       2.808  -5.188   0.000  0.00  0.00    +0.000 OA
ATOM     24  O   UNL     1       5.665  -5.188   0.000  0.00  0.00    +0.000 OA
ATOM     25  C   UNL     1       4.236  -5.188   0.000  0.00  0.00    +0.000 C 
ATOM     26  C   UNL     1       3.522  -4.776   0.000  0.00  0.00    +0.000 C 
ATOM     27  C   UNL     1       4.951  -4.776   0.000  0.00  0.00    +0.000 C 
ATOM     28  C   UNL     1       3.522  -3.951   0.000  0.00  0.00    +0.000 C 
ATOM     29  C   UNL     1       4.951  -3.951   0.000  0.00  0.00    +0.000 C 
BRANCH  28  31
ATOM     30  O   UNL     1       2.093  -3.951   0.000  0.00  0.00    +0.000 OA
ATOM     31  C   UNL     1       2.808  -3.538   0.000  0.00  0.00    +0.000 C 
ENDBRANCH  28  31
ENDBRANCH  20  29
ENDBRANCH   4  20
BRANCH  12  32
ATOM     32  O   UNL     1       4.941   1.056   0.000  0.00  0.00    +0.000 OA
BRANCH  32  34
ATOM     33  O   UNL     1       3.512   1.062   0.000  0.00  0.00    +0.000 OA
ATOM     34  C   UNL     1       4.228   1.472   0.000  0.00  0.00    +0.000 C 
BRANCH  34  35
ATOM     35  C   UNL     1       4.231   2.296   0.000  0.00  0.00    +0.000 C 
ATOM     36  C   UNL     1       3.518   2.712   0.000  0.00  0.00    +0.000 C 
BRANCH  36  38
ATOM     37  O   UNL     1       3.531   6.012   0.000  0.00  0.00    +0.000 OA
ATOM     38  C   UNL     1       3.522   3.537   0.000  0.00  0.00    +0.000 A 
ATOM     39  C   UNL     1       4.237   3.946   0.000  0.00  0.00    +0.000 A 
ATOM     40  C   UNL     1       2.809   3.952   0.000  0.00  0.00    +0.000 A 
ATOM     41  C   UNL     1       4.241   4.771   0.000  0.00  0.00    +0.000 A 
ATOM     42  C   UNL     1       2.812   4.777   0.000  0.00  0.00    +0.000 A 
ATOM     43  C   UNL     1       3.528   5.187   0.000  0.00  0.00    +0.000 A 
ENDBRANCH  36  38
ENDBRANCH  34  35
ENDBRANCH  32  34
ENDBRANCH  12  32
TORSDOF 8
