REMARK  Name = 131751355
REMARK  7 active torsions:
REMARK  status: ('A' for Active; 'I' for Inactive)
REMARK    1  A    between atoms: O_5  and  C_21
REMARK    2  A    between atoms: O_5  and  C_28
REMARK    3  A    between atoms: C_18  and  C_20
REMARK    4  A    between atoms: C_19  and  C_21
REMARK    5  A    between atoms: C_28  and  C_32
REMARK    6  A    between atoms: C_30  and  C_31
REMARK    7  A    between atoms: C_35  and  C_39
REMARK                            x       y       z     vdW  Elec       q    Type
REMARK                         _______ _______ _______ _____ _____    ______ ____
ROOT
ATOM      1  O   UNL     1       9.238   0.425   0.000  0.00  0.00    +0.000 OA
ATOM      2  O   UNL     1       9.238   2.900   0.000  0.00  0.00    +0.000 OA
ATOM      3  O   UNL     1      10.667   2.075   0.000  0.00  0.00    +0.000 OA
ATOM      4  O   UNL     1       7.809   2.075   0.000  0.00  0.00    +0.000 OA
ATOM      5  C   UNL     1       9.238   2.075   0.000  0.00  0.00    +0.000 C 
ATOM      6  C   UNL     1       9.952   1.662   0.000  0.00  0.00    +0.000 C 
ATOM      7  C   UNL     1       8.523   1.662   0.000  0.00  0.00    +0.000 C 
ATOM      8  C   UNL     1       9.952   0.837   0.000  0.00  0.00    +0.000 C 
ATOM      9  C   UNL     1       8.523   0.837   0.000  0.00  0.00    +0.000 C 
ENDROOT
BRANCH   8  14
ATOM     10  O   UNL     1      11.381   1.662   0.000  0.00  0.00    +0.000 OA
ATOM     11  O   UNL     1       9.952  -0.813   0.000  0.00  0.00    +0.000 OA
ATOM     12  O   UNL     1      12.833  -0.841   0.000  0.00  0.00    +0.000 OA
ATOM     13  O   UNL     1      12.824   1.691   0.000  0.00  0.00    +0.000 OA
ATOM     14  C   UNL     1      10.667   0.425   0.000  0.00  0.00    +0.000 A 
ATOM     15  C   UNL     1      11.381   0.837   0.000  0.00  0.00    +0.000 A 
ATOM     16  C   UNL     1      10.667  -0.400   0.000  0.00  0.00    +0.000 A 
ATOM     17  C   UNL     1      12.096   0.425   0.000  0.00  0.00    +0.000 A 
ATOM     18  C   UNL     1      11.381  -0.813   0.000  0.00  0.00    +0.000 A 
ATOM     19  C   UNL     1      12.096  -0.400   0.000  0.00  0.00    +0.000 A 
ATOM     20  C   UNL     1      12.833   0.866   0.000  0.00  0.00    +0.000 A 
ATOM     21  C   UNL     1      13.581   0.442   0.000  0.00  0.00    +0.000 A 
ATOM     22  C   UNL     1      13.581  -0.417   0.000  0.00  0.00    +0.000 A 
BRANCH  22  25
ATOM     23  O   UNL     1      15.000  -2.898   0.000  0.00  0.00    +0.000 OA
ATOM     24  O   UNL     1      16.432  -2.079   0.000  0.00  0.00    +0.000 OA
ATOM     25  C   UNL     1      14.293  -0.833   0.000  0.00  0.00    +0.000 A 
ATOM     26  C   UNL     1      14.290  -1.658   0.000  0.00  0.00    +0.000 A 
ATOM     27  C   UNL     1      15.009  -0.423   0.000  0.00  0.00    +0.000 A 
ATOM     28  C   UNL     1      15.003  -2.073   0.000  0.00  0.00    +0.000 A 
ATOM     29  C   UNL     1      15.722  -0.838   0.000  0.00  0.00    +0.000 A 
ATOM     30  C   UNL     1      15.719  -1.663   0.000  0.00  0.00    +0.000 A 
ENDBRANCH  22  25
ENDBRANCH   8  14
BRANCH   9  31
ATOM     31  C   UNL     1       7.809   0.425   0.000  0.00  0.00    +0.000 C 
BRANCH  31  32
ATOM     32  O   UNL     1       7.094   0.837   0.000  0.00  0.00    +0.000 OA
BRANCH  32  34
ATOM     33  O   UNL     1       6.380  -0.400   0.000  0.00  0.00    +0.000 OA
ATOM     34  C   UNL     1       6.380   0.425   0.000  0.00  0.00    +0.000 C 
BRANCH  34  35
ATOM     35  C   UNL     1       5.665   0.837   0.000  0.00  0.00    +0.000 C 
ATOM     36  C   UNL     1       4.951   0.425   0.000  0.00  0.00    +0.000 C 
BRANCH  36  39
ATOM     37  O   UNL     1       3.522   2.900   0.000  0.00  0.00    +0.000 OA
ATOM     38  O   UNL     1       2.093   2.075   0.000  0.00  0.00    +0.000 OA
ATOM     39  C   UNL     1       4.236   0.837   0.000  0.00  0.00    +0.000 A 
ATOM     40  C   UNL     1       4.236   1.662   0.000  0.00  0.00    +0.000 A 
ATOM     41  C   UNL     1       3.522   0.425   0.000  0.00  0.00    +0.000 A 
ATOM     42  C   UNL     1       3.522   2.075   0.000  0.00  0.00    +0.000 A 
ATOM     43  C   UNL     1       2.808   0.837   0.000  0.00  0.00    +0.000 A 
ATOM     44  C   UNL     1       2.808   1.662   0.000  0.00  0.00    +0.000 A 
ENDBRANCH  36  39
ENDBRANCH  34  35
ENDBRANCH  32  34
ENDBRANCH  31  32
ENDBRANCH   9  31
TORSDOF 7
