REMARK  Name = 74978214
REMARK  7 active torsions:
REMARK  status: ('A' for Active; 'I' for Inactive)
REMARK    1  A    between atoms: O_3  and  C_17
REMARK    2  A    between atoms: O_3  and  C_31
REMARK    3  A    between atoms: O_4  and  C_21
REMARK    4  A    between atoms: O_4  and  C_29
REMARK    5  A    between atoms: O_7  and  C_26
REMARK    6  A    between atoms: O_7  and  C_30
REMARK    7  A    between atoms: C_34  and  C_39
REMARK                            x       y       z     vdW  Elec       q    Type
REMARK                         _______ _______ _______ _____ _____    ______ ____
ROOT
ATOM      1  O   UNL     1       6.389  -0.031   0.000  0.00  0.00    +0.000 OA
ATOM      2  O   UNL     1       4.245  -1.269   0.000  0.00  0.00    +0.000 OA
ATOM      3  O   UNL     1       3.499  -0.034   0.000  0.00  0.00    +0.000 OA
ATOM      4  C   UNL     1       5.674  -1.269   0.000  0.00  0.00    +0.000 A 
ATOM      5  C   UNL     1       4.947   1.676   0.000  0.00  0.00    +0.000 A 
ATOM      6  C   UNL     1       4.960  -0.031   0.000  0.00  0.00    +0.000 A 
ATOM      7  C   UNL     1       4.960  -0.856   0.000  0.00  0.00    +0.000 A 
ATOM      8  C   UNL     1       6.389  -0.856   0.000  0.00  0.00    +0.000 A 
ATOM      9  C   UNL     1       5.674   0.381   0.000  0.00  0.00    +0.000 A 
ATOM     10  C   UNL     1       5.688   1.240   0.000  0.00  0.00    +0.000 A 
ATOM     11  C   UNL     1       4.202   1.246   0.000  0.00  0.00    +0.000 A 
ATOM     12  C   UNL     1       4.209   0.387   0.000  0.00  0.00    +0.000 A 
ENDROOT
BRANCH   8  15
ATOM     13  O   UNL     1       9.247  -0.856   0.000  0.00  0.00    +0.000 OA
ATOM     14  O   UNL     1       9.247  -2.506   0.000  0.00  0.00    +0.000 OA
ATOM     15  C   UNL     1       7.103  -1.269   0.000  0.00  0.00    +0.000 A 
ATOM     16  C   UNL     1       7.818  -0.856   0.000  0.00  0.00    +0.000 A 
ATOM     17  C   UNL     1       7.103  -2.094   0.000  0.00  0.00    +0.000 A 
ATOM     18  C   UNL     1       8.532  -1.269   0.000  0.00  0.00    +0.000 A 
ATOM     19  C   UNL     1       7.818  -2.506   0.000  0.00  0.00    +0.000 A 
ATOM     20  C   UNL     1       8.532  -2.094   0.000  0.00  0.00    +0.000 A 
ENDBRANCH   8  15
BRANCH   4  21
ATOM     21  O   UNL     1       5.674  -2.094   0.000  0.00  0.00    +0.000 OA
BRANCH  21  29
ATOM     22  O   UNL     1       4.245  -2.094   0.000  0.00  0.00    +0.000 OA
ATOM     23  O   UNL     1       4.245  -4.569   0.000  0.00  0.00    +0.000 OA
ATOM     24  O   UNL     1       5.674  -3.744   0.000  0.00  0.00    +0.000 OA
ATOM     25  C   UNL     1       3.531  -3.331   0.000  0.00  0.00    +0.000 C 
ATOM     26  C   UNL     1       4.245  -3.744   0.000  0.00  0.00    +0.000 C 
ATOM     27  C   UNL     1       4.960  -3.331   0.000  0.00  0.00    +0.000 C 
ATOM     28  C   UNL     1       3.531  -2.506   0.000  0.00  0.00    +0.000 C 
ATOM     29  C   UNL     1       4.960  -2.506   0.000  0.00  0.00    +0.000 C 
ATOM     30  C   UNL     1       2.816  -2.094   0.000  0.00  0.00    +0.000 C 
BRANCH  25  31
ATOM     31  O   UNL     1       2.816  -3.744   0.000  0.00  0.00    +0.000 OA
BRANCH  31  33
ATOM     32  O   UNL     1       3.531  -4.981   0.000  0.00  0.00    +0.000 OA
ATOM     33  C   UNL     1       2.816  -4.569   0.000  0.00  0.00    +0.000 C 
ATOM     34  C   UNL     1       2.102  -4.981   0.000  0.00  0.00    +0.000 C 
ENDBRANCH  31  33
ENDBRANCH  25  31
ENDBRANCH  21  29
ENDBRANCH   4  21
BRANCH   5  35
ATOM     35  O   UNL     1       4.950   2.501   0.000  0.00  0.00    +0.000 OA
BRANCH  35  44
ATOM     36  O   UNL     1       4.240   3.741   0.000  0.00  0.00    +0.000 OA
ATOM     37  O   UNL     1       2.092   2.512   0.000  0.00  0.00    +0.000 OA
ATOM     38  O   UNL     1       2.098   4.162   0.000  0.00  0.00    +0.000 OA
ATOM     39  O   UNL     1       3.518   1.681   0.000  0.00  0.00    +0.000 OA
ATOM     40  C   UNL     1       2.808   2.922   0.000  0.00  0.00    +0.000 C 
ATOM     41  C   UNL     1       2.811   3.747   0.000  0.00  0.00    +0.000 C 
ATOM     42  C   UNL     1       3.521   2.506   0.000  0.00  0.00    +0.000 C 
ATOM     43  C   UNL     1       3.527   4.156   0.000  0.00  0.00    +0.000 C 
ATOM     44  C   UNL     1       4.237   2.916   0.000  0.00  0.00    +0.000 C 
ATOM     45  C   UNL     1       3.530   4.981   0.000  0.00  0.00    +0.000 C 
ENDBRANCH  35  44
ENDBRANCH   5  35
TORSDOF 7
