REMARK  Name = 131752831
REMARK  6 active torsions:
REMARK  status: ('A' for Active; 'I' for Inactive)
REMARK    1  A    between atoms: O_2  and  C_17
REMARK    2  A    between atoms: O_2  and  C_19
REMARK    3  A    between atoms: O_8  and  C_21
REMARK    4  A    between atoms: O_11  and  C_32
REMARK    5  A    between atoms: C_16  and  C_18
REMARK    6  A    between atoms: C_26  and  C_28
REMARK                            x       y       z     vdW  Elec       q    Type
REMARK                         _______ _______ _______ _____ _____    ______ ____
ROOT
ATOM      1  O   UNL     1       7.117   0.384   0.000  0.00  0.00    +0.000 OA
ATOM      2  O   UNL     1       5.665   2.888   0.000  0.00  0.00    +0.000 OA
ATOM      3  O   UNL     1       7.108   2.916   0.000  0.00  0.00    +0.000 OA
ATOM      4  C   UNL     1       5.665   0.412   0.000  0.00  0.00    +0.000 A 
ATOM      5  C   UNL     1       6.380   0.825   0.000  0.00  0.00    +0.000 A 
ATOM      6  C   UNL     1       4.951   0.825   0.000  0.00  0.00    +0.000 A 
ATOM      7  C   UNL     1       6.380   1.650   0.000  0.00  0.00    +0.000 A 
ATOM      8  C   UNL     1       4.951   1.650   0.000  0.00  0.00    +0.000 A 
ATOM      9  C   UNL     1       5.665   2.062   0.000  0.00  0.00    +0.000 A 
ATOM     10  C   UNL     1       7.117   2.091   0.000  0.00  0.00    +0.000 A 
ATOM     11  C   UNL     1       7.865   0.808   0.000  0.00  0.00    +0.000 A 
ATOM     12  C   UNL     1       7.865   1.667   0.000  0.00  0.00    +0.000 A 
ENDROOT
BRANCH  11  14
ATOM     13  O   UNL     1      10.716  -0.853   0.000  0.00  0.00    +0.000 OA
ATOM     14  C   UNL     1       8.578   0.393   0.000  0.00  0.00    +0.000 A 
ATOM     15  C   UNL     1       8.575  -0.432   0.000  0.00  0.00    +0.000 A 
ATOM     16  C   UNL     1       9.294   0.802   0.000  0.00  0.00    +0.000 A 
ATOM     17  C   UNL     1       9.287  -0.848   0.000  0.00  0.00    +0.000 A 
ATOM     18  C   UNL     1      10.007   0.387   0.000  0.00  0.00    +0.000 A 
ATOM     19  C   UNL     1      10.004  -0.438   0.000  0.00  0.00    +0.000 A 
BRANCH  17  20
ATOM     20  O   UNL     1       9.284  -1.673   0.000  0.00  0.00    +0.000 OA
ATOM     21  C   UNL     1       9.997  -2.088   0.000  0.00  0.00    +0.000 C 
ENDBRANCH  17  20
ENDBRANCH  11  14
BRANCH   6  22
ATOM     22  O   UNL     1       4.236   0.412   0.000  0.00  0.00    +0.000 OA
ATOM     23  C   UNL     1       3.522   0.825   0.000  0.00  0.00    +0.000 C 
ENDBRANCH   6  22
BRANCH   4  24
ATOM     24  O   UNL     1       5.665  -0.412   0.000  0.00  0.00    +0.000 OA
BRANCH  24  33
ATOM     25  O   UNL     1       4.236  -0.412   0.000  0.00  0.00    +0.000 OA
ATOM     26  O   UNL     1       4.236  -2.888   0.000  0.00  0.00    +0.000 OA
ATOM     27  O   UNL     1       2.808  -2.062   0.000  0.00  0.00    +0.000 OA
ATOM     28  O   UNL     1       5.665  -2.062   0.000  0.00  0.00    +0.000 OA
ATOM     29  C   UNL     1       4.236  -2.062   0.000  0.00  0.00    +0.000 C 
ATOM     30  C   UNL     1       3.522  -1.650   0.000  0.00  0.00    +0.000 C 
ATOM     31  C   UNL     1       4.951  -1.650   0.000  0.00  0.00    +0.000 C 
ATOM     32  C   UNL     1       3.522  -0.825   0.000  0.00  0.00    +0.000 C 
ATOM     33  C   UNL     1       4.951  -0.825   0.000  0.00  0.00    +0.000 C 
BRANCH  32  35
ATOM     34  O   UNL     1       2.093  -0.825   0.000  0.00  0.00    +0.000 OA
ATOM     35  C   UNL     1       2.808  -0.412   0.000  0.00  0.00    +0.000 C 
ENDBRANCH  32  35
ENDBRANCH  24  33
ENDBRANCH   4  24
TORSDOF 6
