REMARK  Name = 5465152
REMARK  9 active torsions:
REMARK  status: ('A' for Active; 'I' for Inactive)
REMARK    1  A    between atoms: O_1  and  C_20
REMARK    2  A    between atoms: O_1  and  C_25
REMARK    3  A    between atoms: O_4  and  C_29
REMARK    4  A    between atoms: O_4  and  C_30
REMARK    5  A    between atoms: O_6  and  C_27
REMARK    6  A    between atoms: O_6  and  C_37
REMARK    7  A    between atoms: C_23  and  C_29
REMARK    8  A    between atoms: C_24  and  C_32
REMARK    9  A    between atoms: C_38  and  C_41
REMARK                            x       y       z     vdW  Elec       q    Type
REMARK                         _______ _______ _______ _____ _____    ______ ____
ROOT
ATOM      1  O   UNL     1       7.094   0.321   0.000  0.00  0.00    +0.000 OA
ATOM      2  O   UNL     1       7.094  -2.154   0.000  0.00  0.00    +0.000 OA
ATOM      3  O   UNL     1       5.665  -1.329   0.000  0.00  0.00    +0.000 OA
ATOM      4  C   UNL     1       7.809  -0.917   0.000  0.00  0.00    +0.000 C 
ATOM      5  C   UNL     1       7.094  -1.329   0.000  0.00  0.00    +0.000 C 
ATOM      6  C   UNL     1       6.380  -0.917   0.000  0.00  0.00    +0.000 C 
ATOM      7  C   UNL     1       6.380  -0.092   0.000  0.00  0.00    +0.000 C 
ATOM      8  C   UNL     1       7.809  -0.092   0.000  0.00  0.00    +0.000 C 
ENDROOT
BRANCH   4   9
ATOM      9  O   UNL     1       8.523  -1.329   0.000  0.00  0.00    +0.000 OA
BRANCH   9  14
ATOM     10  O   UNL     1       7.856  -2.639   0.000  0.00  0.00    +0.000 OA
ATOM     11  O   UNL     1       9.720  -3.679   0.000  0.00  0.00    +0.000 OA
ATOM     12  O   UNL     1       9.975  -2.384   0.000  0.00  0.00    +0.000 OA
ATOM     13  C   UNL     1       8.936  -3.424   0.000  0.00  0.00    +0.000 C 
ATOM     14  C   UNL     1       8.523  -2.154   0.000  0.00  0.00    +0.000 C 
ATOM     15  C   UNL     1       9.191  -2.639   0.000  0.00  0.00    +0.000 C 
ATOM     16  C   UNL     1       8.111  -3.424   0.000  0.00  0.00    +0.000 C 
BRANCH  13  18
ATOM     17  O   UNL     1       9.650  -4.661   0.000  0.00  0.00    +0.000 OA
ATOM     18  C   UNL     1       8.936  -4.249   0.000  0.00  0.00    +0.000 C 
ENDBRANCH  13  18
ENDBRANCH   9  14
ENDBRANCH   4   9
BRANCH   8  19
ATOM     19  O   UNL     1       8.523   0.321   0.000  0.00  0.00    +0.000 OA
BRANCH  19  24
ATOM     20  O   UNL     1       9.238   2.383   0.000  0.00  0.00    +0.000 OA
ATOM     21  O   UNL     1       7.094   1.146   0.000  0.00  0.00    +0.000 OA
ATOM     22  O   UNL     1       6.348   2.381   0.000  0.00  0.00    +0.000 OA
ATOM     23  O   UNL     1       7.799   4.915   0.000  0.00  0.00    +0.000 OA
ATOM     24  C   UNL     1       8.523   1.146   0.000  0.00  0.00    +0.000 A 
ATOM     25  C   UNL     1       9.238   1.558   0.000  0.00  0.00    +0.000 A 
ATOM     26  C   UNL     1       7.809   1.558   0.000  0.00  0.00    +0.000 A 
ATOM     27  C   UNL     1       7.809   2.383   0.000  0.00  0.00    +0.000 A 
ATOM     28  C   UNL     1       8.523   2.796   0.000  0.00  0.00    +0.000 A 
ATOM     29  C   UNL     1       7.058   2.801   0.000  0.00  0.00    +0.000 A 
ATOM     30  C   UNL     1       8.536   3.655   0.000  0.00  0.00    +0.000 A 
ATOM     31  C   UNL     1       7.051   3.661   0.000  0.00  0.00    +0.000 A 
ATOM     32  C   UNL     1       7.796   4.090   0.000  0.00  0.00    +0.000 A 
BRANCH  25  34
ATOM     33  O   UNL     1      12.096  -0.092   0.000  0.00  0.00    +0.000 OA
ATOM     34  C   UNL     1       9.952   1.146   0.000  0.00  0.00    +0.000 A 
ATOM     35  C   UNL     1       9.952   0.321   0.000  0.00  0.00    +0.000 A 
ATOM     36  C   UNL     1      10.667   1.558   0.000  0.00  0.00    +0.000 A 
ATOM     37  C   UNL     1      10.667  -0.092   0.000  0.00  0.00    +0.000 A 
ATOM     38  C   UNL     1      11.381   1.146   0.000  0.00  0.00    +0.000 A 
ATOM     39  C   UNL     1      11.381   0.321   0.000  0.00  0.00    +0.000 A 
ENDBRANCH  25  34
ENDBRANCH  19  24
ENDBRANCH   8  19
BRANCH   7  40
ATOM     40  C   UNL     1       5.665   0.321   0.000  0.00  0.00    +0.000 C 
BRANCH  40  41
ATOM     41  O   UNL     1       4.951  -0.092   0.000  0.00  0.00    +0.000 OA
BRANCH  41  46
ATOM     42  O   UNL     1       3.522  -0.092   0.000  0.00  0.00    +0.000 OA
ATOM     43  O   UNL     1       4.951   1.558   0.000  0.00  0.00    +0.000 OA
ATOM     44  O   UNL     1       3.522   2.383   0.000  0.00  0.00    +0.000 OA
ATOM     45  O   UNL     1       2.093   1.558   0.000  0.00  0.00    +0.000 OA
ATOM     46  C   UNL     1       4.236   0.321   0.000  0.00  0.00    +0.000 C 
ATOM     47  C   UNL     1       4.236   1.146   0.000  0.00  0.00    +0.000 C 
ATOM     48  C   UNL     1       3.522   1.558   0.000  0.00  0.00    +0.000 C 
ATOM     49  C   UNL     1       2.808   1.146   0.000  0.00  0.00    +0.000 C 
ATOM     50  C   UNL     1       2.808   0.321   0.000  0.00  0.00    +0.000 C 
ATOM     51  C   UNL     1       2.093  -0.092   0.000  0.00  0.00    +0.000 C 
ENDBRANCH  41  46
ENDBRANCH  40  41
ENDBRANCH   7  40
TORSDOF 9
