REMARK  Name = 74819427
REMARK  7 active torsions:
REMARK  status: ('A' for Active; 'I' for Inactive)
REMARK    1  A    between atoms: O_3  and  C_25
REMARK    2  A    between atoms: O_3  and  C_29
REMARK    3  A    between atoms: O_4  and  C_26
REMARK    4  A    between atoms: O_4  and  C_30
REMARK    5  A    between atoms: C_23  and  C_27
REMARK    6  A    between atoms: C_24  and  C_28
REMARK    7  A    between atoms: C_35  and  C_38
REMARK                            x       y       z     vdW  Elec       q    Type
REMARK                         _______ _______ _______ _____ _____    ______ ____
ROOT
ATOM      1  O   UNL     1       7.081   1.036   0.000  0.00  0.00    +0.000 OA
ATOM      2  O   UNL     1       8.523  -1.473   0.000  0.00  0.00    +0.000 OA
ATOM      3  O   UNL     1       9.269  -0.238   0.000  0.00  0.00    +0.000 OA
ATOM      4  C   UNL     1       7.094  -1.473   0.000  0.00  0.00    +0.000 A 
ATOM      5  C   UNL     1       6.380  -1.061   0.000  0.00  0.00    +0.000 A 
ATOM      6  C   UNL     1       7.809  -1.061   0.000  0.00  0.00    +0.000 A 
ATOM      7  C   UNL     1       7.809  -0.236   0.000  0.00  0.00    +0.000 A 
ATOM      8  C   UNL     1       7.094   0.177   0.000  0.00  0.00    +0.000 A 
ATOM      9  C   UNL     1       6.380  -0.236   0.000  0.00  0.00    +0.000 A 
ATOM     10  C   UNL     1       7.822   1.472   0.000  0.00  0.00    +0.000 C 
ATOM     11  C   UNL     1       8.566   1.042   0.000  0.00  0.00    +0.000 C 
ATOM     12  C   UNL     1       8.559   0.182   0.000  0.00  0.00    +0.000 C 
ENDROOT
BRANCH  10  14
ATOM     13  O   UNL     1       7.809   4.771   0.000  0.00  0.00    +0.000 OA
ATOM     14  C   UNL     1       7.819   2.296   0.000  0.00  0.00    +0.000 A 
ATOM     15  C   UNL     1       7.103   2.706   0.000  0.00  0.00    +0.000 A 
ATOM     16  C   UNL     1       8.532   2.712   0.000  0.00  0.00    +0.000 A 
ATOM     17  C   UNL     1       7.099   3.531   0.000  0.00  0.00    +0.000 A 
ATOM     18  C   UNL     1       8.528   3.537   0.000  0.00  0.00    +0.000 A 
ATOM     19  C   UNL     1       7.812   3.946   0.000  0.00  0.00    +0.000 A 
ENDBRANCH  10  14
BRANCH   4  20
ATOM     20  O   UNL     1       7.094  -2.298   0.000  0.00  0.00    +0.000 OA
BRANCH  20  29
ATOM     21  O   UNL     1       5.665  -2.298   0.000  0.00  0.00    +0.000 OA
ATOM     22  O   UNL     1       5.665  -4.773   0.000  0.00  0.00    +0.000 OA
ATOM     23  O   UNL     1       4.236  -3.948   0.000  0.00  0.00    +0.000 OA
ATOM     24  O   UNL     1       7.094  -3.948   0.000  0.00  0.00    +0.000 OA
ATOM     25  C   UNL     1       5.665  -3.948   0.000  0.00  0.00    +0.000 C 
ATOM     26  C   UNL     1       4.951  -3.536   0.000  0.00  0.00    +0.000 C 
ATOM     27  C   UNL     1       6.380  -3.536   0.000  0.00  0.00    +0.000 C 
ATOM     28  C   UNL     1       4.951  -2.711   0.000  0.00  0.00    +0.000 C 
ATOM     29  C   UNL     1       6.380  -2.711   0.000  0.00  0.00    +0.000 C 
BRANCH  28  31
ATOM     30  O   UNL     1       3.522  -2.711   0.000  0.00  0.00    +0.000 OA
ATOM     31  C   UNL     1       4.236  -2.298   0.000  0.00  0.00    +0.000 C 
ENDBRANCH  28  31
ENDBRANCH  20  29
ENDBRANCH   4  20
BRANCH   5  32
ATOM     32  O   UNL     1       5.665  -1.473   0.000  0.00  0.00    +0.000 OA
BRANCH  32  41
ATOM     33  O   UNL     1       4.236  -1.473   0.000  0.00  0.00    +0.000 OA
ATOM     34  O   UNL     1       4.236   1.002   0.000  0.00  0.00    +0.000 OA
ATOM     35  O   UNL     1       2.808   0.177   0.000  0.00  0.00    +0.000 OA
ATOM     36  O   UNL     1       5.665   0.177   0.000  0.00  0.00    +0.000 OA
ATOM     37  C   UNL     1       4.236   0.177   0.000  0.00  0.00    +0.000 C 
ATOM     38  C   UNL     1       3.522  -0.236   0.000  0.00  0.00    +0.000 C 
ATOM     39  C   UNL     1       4.951  -0.236   0.000  0.00  0.00    +0.000 C 
ATOM     40  C   UNL     1       3.522  -1.061   0.000  0.00  0.00    +0.000 C 
ATOM     41  C   UNL     1       4.951  -1.061   0.000  0.00  0.00    +0.000 C 
BRANCH  40  43
ATOM     42  O   UNL     1       2.093  -1.061   0.000  0.00  0.00    +0.000 OA
ATOM     43  C   UNL     1       2.808  -1.473   0.000  0.00  0.00    +0.000 C 
ENDBRANCH  40  43
ENDBRANCH  32  41
ENDBRANCH   5  32
TORSDOF 7
