REMARK  Name = 14427359
REMARK  5 active torsions:
REMARK  status: ('A' for Active; 'I' for Inactive)
REMARK    1  A    between atoms: C_16  and  C_21
REMARK    2  A    between atoms: C_17  and  C_26
REMARK    3  A    between atoms: C_24  and  C_32
REMARK    4  A    between atoms: C_27  and  C_33
REMARK    5  A    between atoms: C_34  and  C_37
REMARK                            x       y       z     vdW  Elec       q    Type
REMARK                         _______ _______ _______ _____ _____    ______ ____
ROOT
ATOM      1  O   UNL     1       7.832  -0.235   0.000  0.00  0.00    +0.000 OA
ATOM      2  O   UNL     1       4.951  -0.206   0.000  0.00  0.00    +0.000 OA
ATOM      3  O   UNL     1       6.380   2.269   0.000  0.00  0.00    +0.000 OA
ATOM      4  O   UNL     1       7.822   2.297   0.000  0.00  0.00    +0.000 OA
ATOM      5  C   UNL     1       6.380  -0.206   0.000  0.00  0.00    +0.000 A 
ATOM      6  C   UNL     1       5.665   1.031   0.000  0.00  0.00    +0.000 A 
ATOM      7  C   UNL     1       5.665   0.206   0.000  0.00  0.00    +0.000 A 
ATOM      8  C   UNL     1       7.094   0.206   0.000  0.00  0.00    +0.000 A 
ATOM      9  C   UNL     1       7.094   1.031   0.000  0.00  0.00    +0.000 A 
ATOM     10  C   UNL     1       6.380   1.444   0.000  0.00  0.00    +0.000 A 
ATOM     11  C   UNL     1       8.579   0.189   0.000  0.00  0.00    +0.000 C 
ATOM     12  C   UNL     1       8.579   1.048   0.000  0.00  0.00    +0.000 C 
ATOM     13  C   UNL     1       7.832   1.472   0.000  0.00  0.00    +0.000 C 
ENDROOT
BRANCH   5  18
ATOM     14  O   UNL     1       7.094  -1.444   0.000  0.00  0.00    +0.000 OA
ATOM     15  O   UNL     1       4.951  -1.031   0.000  0.00  0.00    +0.000 OA
ATOM     16  O   UNL     1       4.951  -2.681   0.000  0.00  0.00    +0.000 OA
ATOM     17  O   UNL     1       6.380  -3.506   0.000  0.00  0.00    +0.000 OA
ATOM     18  C   UNL     1       6.380  -1.031   0.000  0.00  0.00    +0.000 C 
ATOM     19  C   UNL     1       5.665  -1.444   0.000  0.00  0.00    +0.000 C 
ATOM     20  C   UNL     1       5.665  -2.269   0.000  0.00  0.00    +0.000 C 
ATOM     21  C   UNL     1       6.380  -2.681   0.000  0.00  0.00    +0.000 C 
ATOM     22  C   UNL     1       7.094  -2.269   0.000  0.00  0.00    +0.000 C 
BRANCH  22  24
ATOM     23  O   UNL     1       7.809  -3.506   0.000  0.00  0.00    +0.000 OA
ATOM     24  C   UNL     1       7.809  -2.681   0.000  0.00  0.00    +0.000 C 
ENDBRANCH  22  24
ENDBRANCH   5  18
BRANCH   6  29
ATOM     25  O   UNL     1       4.236   1.031   0.000  0.00  0.00    +0.000 OA
ATOM     26  O   UNL     1       5.665   2.681   0.000  0.00  0.00    +0.000 OA
ATOM     27  O   UNL     1       4.236   3.506   0.000  0.00  0.00    +0.000 OA
ATOM     28  O   UNL     1       2.808   2.681   0.000  0.00  0.00    +0.000 OA
ATOM     29  C   UNL     1       4.951   1.444   0.000  0.00  0.00    +0.000 C 
ATOM     30  C   UNL     1       4.951   2.269   0.000  0.00  0.00    +0.000 C 
ATOM     31  C   UNL     1       4.236   2.681   0.000  0.00  0.00    +0.000 C 
ATOM     32  C   UNL     1       3.522   2.269   0.000  0.00  0.00    +0.000 C 
ATOM     33  C   UNL     1       3.522   1.444   0.000  0.00  0.00    +0.000 C 
BRANCH  33  35
ATOM     34  O   UNL     1       2.093   1.444   0.000  0.00  0.00    +0.000 OA
ATOM     35  C   UNL     1       2.808   1.031   0.000  0.00  0.00    +0.000 C 
ENDBRANCH  33  35
ENDBRANCH   6  29
BRANCH  11  37
ATOM     36  O   UNL     1      11.431  -1.472   0.000  0.00  0.00    +0.000 OA
ATOM     37  C   UNL     1       9.292  -0.226   0.000  0.00  0.00    +0.000 A 
ATOM     38  C   UNL     1      10.008   0.184   0.000  0.00  0.00    +0.000 A 
ATOM     39  C   UNL     1       9.289  -1.051   0.000  0.00  0.00    +0.000 A 
ATOM     40  C   UNL     1      10.721  -0.232   0.000  0.00  0.00    +0.000 A 
ATOM     41  C   UNL     1      10.002  -1.466   0.000  0.00  0.00    +0.000 A 
ATOM     42  C   UNL     1      10.718  -1.057   0.000  0.00  0.00    +0.000 A 
ENDBRANCH  11  37
TORSDOF 5
