REMARK  Name = 6442433
REMARK  9 active torsions:
REMARK  status: ('A' for Active; 'I' for Inactive)
REMARK    1  A    between atoms: O_1  and  C_14
REMARK    2  A    between atoms: O_1  and  C_17
REMARK    3  A    between atoms: O_7  and  C_20
REMARK    4  A    between atoms: O_7  and  C_25
REMARK    5  A    between atoms: C_15  and  C_23
REMARK    6  A    between atoms: C_21  and  C_24
REMARK    7  A    between atoms: C_30  and  C_31
REMARK    8  A    between atoms: C_32  and  C_33
REMARK    9  A    between atoms: C_33  and  C_34
REMARK                            x       y       z     vdW  Elec       q    Type
REMARK                         _______ _______ _______ _____ _____    ______ ____
ROOT
ATOM      1  O   UNL     1       4.236  -1.984   0.000  0.00  0.00    +0.000 OA
ATOM      2  O   UNL     1       4.236  -4.459   0.000  0.00  0.00    +0.000 OA
ATOM      3  O   UNL     1       2.808  -3.634   0.000  0.00  0.00    +0.000 OA
ATOM      4  C   UNL     1       4.951  -3.222   0.000  0.00  0.00    +0.000 C 
ATOM      5  C   UNL     1       4.236  -3.634   0.000  0.00  0.00    +0.000 C 
ATOM      6  C   UNL     1       3.522  -3.222   0.000  0.00  0.00    +0.000 C 
ATOM      7  C   UNL     1       4.951  -2.397   0.000  0.00  0.00    +0.000 C 
ATOM      8  C   UNL     1       3.522  -2.397   0.000  0.00  0.00    +0.000 C 
ENDROOT
BRANCH   8  10
ATOM      9  O   UNL     1       2.093  -2.397   0.000  0.00  0.00    +0.000 OA
ATOM     10  C   UNL     1       2.808  -1.984   0.000  0.00  0.00    +0.000 C 
ENDBRANCH   8  10
BRANCH   4  11
ATOM     11  O   UNL     1       5.665  -3.634   0.000  0.00  0.00    +0.000 OA
BRANCH  11  17
ATOM     12  O   UNL     1       6.466  -2.401   0.000  0.00  0.00    +0.000 OA
ATOM     13  O   UNL     1       8.400  -2.532   0.000  0.00  0.00    +0.000 OA
ATOM     14  O   UNL     1       7.305  -4.364   0.000  0.00  0.00    +0.000 OA
ATOM     15  C   UNL     1       7.686  -2.944   0.000  0.00  0.00    +0.000 C 
ATOM     16  C   UNL     1       7.133  -3.557   0.000  0.00  0.00    +0.000 C 
ATOM     17  C   UNL     1       6.380  -3.222   0.000  0.00  0.00    +0.000 C 
ATOM     18  C   UNL     1       7.273  -2.230   0.000  0.00  0.00    +0.000 C 
BRANCH  15  20
ATOM     19  O   UNL     1       9.083  -3.241   0.000  0.00  0.00    +0.000 OA
ATOM     20  C   UNL     1       8.299  -3.496   0.000  0.00  0.00    +0.000 C 
ENDBRANCH  15  20
ENDBRANCH  11  17
ENDBRANCH   4  11
BRANCH   7  21
ATOM     21  O   UNL     1       5.665  -1.984   0.000  0.00  0.00    +0.000 OA
BRANCH  21  22
ATOM     22  C   UNL     1       5.665  -1.159   0.000  0.00  0.00    +0.000 A 
ATOM     23  C   UNL     1       6.380  -0.747   0.000  0.00  0.00    +0.000 A 
ATOM     24  C   UNL     1       4.951  -0.747   0.000  0.00  0.00    +0.000 A 
ATOM     25  C   UNL     1       6.380   0.078   0.000  0.00  0.00    +0.000 A 
ATOM     26  C   UNL     1       4.951   0.078   0.000  0.00  0.00    +0.000 A 
ATOM     27  C   UNL     1       5.665   0.491   0.000  0.00  0.00    +0.000 A 
BRANCH  27  28
ATOM     28  C   UNL     1       5.665   1.316   0.000  0.00  0.00    +0.000 C 
ATOM     29  C   UNL     1       6.380   1.728   0.000  0.00  0.00    +0.000 C 
BRANCH  29  31
ATOM     30  O   UNL     1       5.665   2.966   0.000  0.00  0.00    +0.000 OA
ATOM     31  C   UNL     1       6.380   2.553   0.000  0.00  0.00    +0.000 C 
BRANCH  31  34
ATOM     32  O   UNL     1       6.380   4.203   0.000  0.00  0.00    +0.000 OA
ATOM     33  O   UNL     1       9.238   4.203   0.000  0.00  0.00    +0.000 OA
ATOM     34  C   UNL     1       7.094   2.966   0.000  0.00  0.00    +0.000 A 
ATOM     35  C   UNL     1       7.094   3.791   0.000  0.00  0.00    +0.000 A 
ATOM     36  C   UNL     1       7.809   2.553   0.000  0.00  0.00    +0.000 A 
ATOM     37  C   UNL     1       7.809   4.203   0.000  0.00  0.00    +0.000 A 
ATOM     38  C   UNL     1       8.523   2.966   0.000  0.00  0.00    +0.000 A 
ATOM     39  C   UNL     1       8.523   3.791   0.000  0.00  0.00    +0.000 A 
ENDBRANCH  31  34
ENDBRANCH  29  31
ENDBRANCH  27  28
ENDBRANCH  21  22
ENDBRANCH   7  21
TORSDOF 9
