REMARK  Name = 76401292
REMARK  9 active torsions:
REMARK  status: ('A' for Active; 'I' for Inactive)
REMARK    1  A    between atoms: O_3  and  C_22
REMARK    2  A    between atoms: O_3  and  C_27
REMARK    3  A    between atoms: O_6  and  C_25
REMARK    4  A    between atoms: O_6  and  C_29
REMARK    5  A    between atoms: O_14  and  C_41
REMARK    6  A    between atoms: O_15  and  C_42
REMARK    7  A    between atoms: O_16  and  C_43
REMARK    8  A    between atoms: C_17  and  C_27
REMARK    9  A    between atoms: C_36  and  C_38
REMARK                            x       y       z     vdW  Elec       q    Type
REMARK                         _______ _______ _______ _____ _____    ______ ____
ROOT
ATOM      1  O   UNL     1       4.916   2.209   0.000  0.00  0.00    +0.000 OA
ATOM      2  O   UNL     1       3.460  -0.286   0.000  0.00  0.00    +0.000 OA
ATOM      3  O   UNL     1       2.768   0.980   0.000  0.00  0.00    +0.000 OA
ATOM      4  C   UNL     1       5.665   0.104   0.000  0.00  0.00    +0.000 A 
ATOM      5  C   UNL     1       5.662   0.963   0.000  0.00  0.00    +0.000 A 
ATOM      6  C   UNL     1       4.920  -0.323   0.000  0.00  0.00    +0.000 A 
ATOM      7  C   UNL     1       4.913   1.384   0.000  0.00  0.00    +0.000 A 
ATOM      8  C   UNL     1       4.180   0.115   0.000  0.00  0.00    +0.000 A 
ATOM      9  C   UNL     1       4.197   0.974   0.000  0.00  0.00    +0.000 A 
ATOM     10  C   UNL     1       3.484   1.390   0.000  0.00  0.00    +0.000 A 
ATOM     11  C   UNL     1       4.203   2.624   0.000  0.00  0.00    +0.000 A 
ATOM     12  C   UNL     1       3.487   2.215   0.000  0.00  0.00    +0.000 A 
ENDROOT
BRANCH  11  13
ATOM     13  C   UNL     1       4.206   3.449   0.000  0.00  0.00    +0.000 A 
ATOM     14  C   UNL     1       3.494   3.865   0.000  0.00  0.00    +0.000 A 
ATOM     15  C   UNL     1       4.922   3.859   0.000  0.00  0.00    +0.000 A 
ATOM     16  C   UNL     1       4.926   4.684   0.000  0.00  0.00    +0.000 A 
ATOM     17  C   UNL     1       3.497   4.689   0.000  0.00  0.00    +0.000 A 
ATOM     18  C   UNL     1       4.213   5.099   0.000  0.00  0.00    +0.000 A 
BRANCH  16  19
ATOM     19  O   UNL     1       5.642   5.094   0.000  0.00  0.00    +0.000 OA
ATOM     20  C   UNL     1       6.355   4.679   0.000  0.00  0.00    +0.000 C 
ENDBRANCH  16  19
BRANCH  17  21
ATOM     21  O   UNL     1       2.784   5.105   0.000  0.00  0.00    +0.000 OA
ATOM     22  C   UNL     1       2.068   4.695   0.000  0.00  0.00    +0.000 C 
ENDBRANCH  17  21
BRANCH  18  23
ATOM     23  O   UNL     1       4.216   5.924   0.000  0.00  0.00    +0.000 OA
ATOM     24  C   UNL     1       3.503   6.340   0.000  0.00  0.00    +0.000 C 
ENDBRANCH  18  23
ENDBRANCH  11  13
BRANCH   4  25
ATOM     25  O   UNL     1       6.380  -0.309   0.000  0.00  0.00    +0.000 OA
BRANCH  25  34
ATOM     26  O   UNL     1       5.665  -1.546   0.000  0.00  0.00    +0.000 OA
ATOM     27  O   UNL     1       6.380  -3.609   0.000  0.00  0.00    +0.000 OA
ATOM     28  O   UNL     1       7.809  -2.784   0.000  0.00  0.00    +0.000 OA
ATOM     29  O   UNL     1       7.809  -1.134   0.000  0.00  0.00    +0.000 OA
ATOM     30  C   UNL     1       5.665  -2.371   0.000  0.00  0.00    +0.000 C 
ATOM     31  C   UNL     1       6.380  -2.784   0.000  0.00  0.00    +0.000 C 
ATOM     32  C   UNL     1       7.094  -2.371   0.000  0.00  0.00    +0.000 C 
ATOM     33  C   UNL     1       7.094  -1.546   0.000  0.00  0.00    +0.000 C 
ATOM     34  C   UNL     1       6.380  -1.134   0.000  0.00  0.00    +0.000 C 
BRANCH  30  35
ATOM     35  C   UNL     1       4.951  -2.784   0.000  0.00  0.00    +0.000 C 
BRANCH  35  36
ATOM     36  O   UNL     1       4.951  -3.609   0.000  0.00  0.00    +0.000 OA
BRANCH  36  42
ATOM     37  O   UNL     1       3.522  -3.609   0.000  0.00  0.00    +0.000 OA
ATOM     38  O   UNL     1       4.951  -5.259   0.000  0.00  0.00    +0.000 OA
ATOM     39  O   UNL     1       3.522  -6.084   0.000  0.00  0.00    +0.000 OA
ATOM     40  O   UNL     1       2.093  -5.259   0.000  0.00  0.00    +0.000 OA
ATOM     41  C   UNL     1       4.236  -4.846   0.000  0.00  0.00    +0.000 C 
ATOM     42  C   UNL     1       4.236  -4.021   0.000  0.00  0.00    +0.000 C 
ATOM     43  C   UNL     1       3.522  -5.259   0.000  0.00  0.00    +0.000 C 
ATOM     44  C   UNL     1       2.808  -4.846   0.000  0.00  0.00    +0.000 C 
ATOM     45  C   UNL     1       2.808  -4.021   0.000  0.00  0.00    +0.000 C 
ATOM     46  C   UNL     1       2.093  -3.609   0.000  0.00  0.00    +0.000 C 
ENDBRANCH  36  42
ENDBRANCH  35  36
ENDBRANCH  30  35
ENDBRANCH  25  34
ENDBRANCH   4  25
TORSDOF 9
