REMARK  Name = 42607807
REMARK  11 active torsions:
REMARK  status: ('A' for Active; 'I' for Inactive)
REMARK    1  A    between atoms: O_1  and  C_16
REMARK    2  A    between atoms: O_1  and  C_19
REMARK    3  A    between atoms: O_7  and  C_22
REMARK    4  A    between atoms: O_7  and  C_27
REMARK    5  A    between atoms: O_9  and  C_25
REMARK    6  A    between atoms: O_9  and  C_30
REMARK    7  A    between atoms: C_17  and  C_25
REMARK    8  A    between atoms: C_23  and  C_26
REMARK    9  A    between atoms: C_30  and  C_36
REMARK   10  A    between atoms: C_31  and  C_32
REMARK   11  A    between atoms: C_40  and  C_45
REMARK                            x       y       z     vdW  Elec       q    Type
REMARK                         _______ _______ _______ _____ _____    ______ ____
ROOT
ATOM      1  O   UNL     1       4.236  -2.003   0.000  0.00  0.00    +0.000 OA
ATOM      2  O   UNL     1       4.236  -4.478   0.000  0.00  0.00    +0.000 OA
ATOM      3  O   UNL     1       2.807  -3.653   0.000  0.00  0.00    +0.000 OA
ATOM      4  C   UNL     1       4.951  -3.240   0.000  0.00  0.00    +0.000 C 
ATOM      5  C   UNL     1       4.236  -3.653   0.000  0.00  0.00    +0.000 C 
ATOM      6  C   UNL     1       3.522  -3.240   0.000  0.00  0.00    +0.000 C 
ATOM      7  C   UNL     1       4.951  -2.415   0.000  0.00  0.00    +0.000 C 
ATOM      8  C   UNL     1       3.522  -2.415   0.000  0.00  0.00    +0.000 C 
ENDROOT
BRANCH   8  10
ATOM      9  O   UNL     1       2.093  -2.415   0.000  0.00  0.00    +0.000 OA
ATOM     10  C   UNL     1       2.807  -2.003   0.000  0.00  0.00    +0.000 C 
ENDBRANCH   8  10
BRANCH   4  11
ATOM     11  O   UNL     1       5.665  -3.653   0.000  0.00  0.00    +0.000 OA
BRANCH  11  17
ATOM     12  O   UNL     1       6.466  -2.420   0.000  0.00  0.00    +0.000 OA
ATOM     13  O   UNL     1       8.400  -2.550   0.000  0.00  0.00    +0.000 OA
ATOM     14  O   UNL     1       7.305  -4.383   0.000  0.00  0.00    +0.000 OA
ATOM     15  C   UNL     1       7.685  -2.963   0.000  0.00  0.00    +0.000 C 
ATOM     16  C   UNL     1       7.133  -3.576   0.000  0.00  0.00    +0.000 C 
ATOM     17  C   UNL     1       6.380  -3.240   0.000  0.00  0.00    +0.000 C 
ATOM     18  C   UNL     1       7.273  -2.248   0.000  0.00  0.00    +0.000 C 
BRANCH  15  19
ATOM     19  C   UNL     1       8.299  -3.515   0.000  0.00  0.00    +0.000 C 
BRANCH  19  20
ATOM     20  O   UNL     1       9.083  -3.260   0.000  0.00  0.00    +0.000 OA
BRANCH  20  22
ATOM     21  O   UNL     1       9.525  -4.619   0.000  0.00  0.00    +0.000 OA
ATOM     22  C   UNL     1       9.696  -3.812   0.000  0.00  0.00    +0.000 C 
BRANCH  22  23
ATOM     23  C   UNL     1      10.481  -3.557   0.000  0.00  0.00    +0.000 C 
ATOM     24  C   UNL     1      11.094  -4.109   0.000  0.00  0.00    +0.000 C 
BRANCH  24  26
ATOM     25  O   UNL     1      14.232  -3.089   0.000  0.00  0.00    +0.000 OA
ATOM     26  C   UNL     1      11.879  -3.854   0.000  0.00  0.00    +0.000 A 
ATOM     27  C   UNL     1      12.050  -3.047   0.000  0.00  0.00    +0.000 A 
ATOM     28  C   UNL     1      12.492  -4.406   0.000  0.00  0.00    +0.000 A 
ATOM     29  C   UNL     1      12.835  -2.792   0.000  0.00  0.00    +0.000 A 
ATOM     30  C   UNL     1      13.276  -4.151   0.000  0.00  0.00    +0.000 A 
ATOM     31  C   UNL     1      13.448  -3.344   0.000  0.00  0.00    +0.000 A 
ENDBRANCH  24  26
ENDBRANCH  22  23
ENDBRANCH  20  22
ENDBRANCH  19  20
ENDBRANCH  15  19
ENDBRANCH  11  17
ENDBRANCH   4  11
BRANCH   7  32
ATOM     32  O   UNL     1       5.665  -2.003   0.000  0.00  0.00    +0.000 OA
BRANCH  32  33
ATOM     33  C   UNL     1       5.665  -1.178   0.000  0.00  0.00    +0.000 A 
ATOM     34  C   UNL     1       6.380  -0.765   0.000  0.00  0.00    +0.000 A 
ATOM     35  C   UNL     1       4.951  -0.765   0.000  0.00  0.00    +0.000 A 
ATOM     36  C   UNL     1       5.665   0.472   0.000  0.00  0.00    +0.000 A 
ATOM     37  C   UNL     1       6.380   0.060   0.000  0.00  0.00    +0.000 A 
ATOM     38  C   UNL     1       4.951   0.060   0.000  0.00  0.00    +0.000 A 
BRANCH  36  42
ATOM     39  O   UNL     1       6.380   1.710   0.000  0.00  0.00    +0.000 OA
ATOM     40  O   UNL     1       4.236   2.947   0.000  0.00  0.00    +0.000 OA
ATOM     41  O   UNL     1       7.853   4.222   0.000  0.00  0.00    +0.000 OA
ATOM     42  C   UNL     1       5.665   1.297   0.000  0.00  0.00    +0.000 C 
ATOM     43  C   UNL     1       4.951   1.710   0.000  0.00  0.00    +0.000 C 
ATOM     44  C   UNL     1       4.951   2.535   0.000  0.00  0.00    +0.000 C 
ATOM     45  C   UNL     1       6.380   2.535   0.000  0.00  0.00    +0.000 A 
ATOM     46  C   UNL     1       5.665   2.947   0.000  0.00  0.00    +0.000 A 
ATOM     47  C   UNL     1       7.130   2.953   0.000  0.00  0.00    +0.000 A 
ATOM     48  C   UNL     1       5.652   3.807   0.000  0.00  0.00    +0.000 A 
ATOM     49  C   UNL     1       7.137   3.812   0.000  0.00  0.00    +0.000 A 
ATOM     50  C   UNL     1       6.393   4.242   0.000  0.00  0.00    +0.000 A 
ENDBRANCH  36  42
ENDBRANCH  32  33
ENDBRANCH   7  32
TORSDOF 11
