REMARK  Name = 131834172
REMARK  4 active torsions:
REMARK  status: ('A' for Active; 'I' for Inactive)
REMARK    1  A    between atoms: S_1  and  O_5
REMARK    2  A    between atoms: O_5  and  C_21
REMARK    3  A    between atoms: O_7  and  C_22
REMARK    4  A    between atoms: C_11  and  C_15
REMARK                            x       y       z     vdW  Elec       q    Type
REMARK                         _______ _______ _______ _____ _____    ______ ____
ROOT
ATOM      1  O   UNL     1       5.245  -0.016   0.000  0.00  0.00    +0.000 OA
ATOM      2  O   UNL     1       6.706   1.683   0.000  0.00  0.00    +0.000 OA
ATOM      3  O   UNL     1       3.793   2.488   0.000  0.00  0.00    +0.000 OA
ATOM      4  O   UNL     1       2.364   1.663   0.000  0.00  0.00    +0.000 OA
ATOM      5  C   UNL     1       5.993   1.267   0.000  0.00  0.00    +0.000 C 
ATOM      6  C   UNL     1       5.993   0.408   0.000  0.00  0.00    +0.000 C 
ATOM      7  C   UNL     1       5.245   1.691   0.000  0.00  0.00    +0.000 C 
ATOM      8  C   UNL     1       4.508   1.250   0.000  0.00  0.00    +0.000 A 
ATOM      9  C   UNL     1       4.508   0.425   0.000  0.00  0.00    +0.000 A 
ATOM     10  C   UNL     1       3.793   1.663   0.000  0.00  0.00    +0.000 A 
ATOM     11  C   UNL     1       3.793   0.013   0.000  0.00  0.00    +0.000 A 
ATOM     12  C   UNL     1       3.079   1.250   0.000  0.00  0.00    +0.000 A 
ATOM     13  C   UNL     1       3.079   0.425   0.000  0.00  0.00    +0.000 A 
ENDROOT
BRANCH   6  14
ATOM     14  C   UNL     1       6.706  -0.007   0.000  0.00  0.00    +0.000 A 
ATOM     15  C   UNL     1       6.703  -0.832   0.000  0.00  0.00    +0.000 A 
ATOM     16  C   UNL     1       7.422   0.403   0.000  0.00  0.00    +0.000 A 
ATOM     17  C   UNL     1       7.415  -1.248   0.000  0.00  0.00    +0.000 A 
ATOM     18  C   UNL     1       8.135  -0.013   0.000  0.00  0.00    +0.000 A 
ATOM     19  C   UNL     1       8.132  -0.838   0.000  0.00  0.00    +0.000 A 
BRANCH  17  20
ATOM     20  O   UNL     1       7.412  -2.072   0.000  0.00  0.00    +0.000 OA
ATOM     21  C   UNL     1       8.125  -2.488   0.000  0.00  0.00    +0.000 C 
ENDBRANCH  17  20
ENDBRANCH   6  14
BRANCH  13  22
ATOM     22  O   UNL     1       2.364   0.013   0.000  0.00  0.00    +0.000 OA
BRANCH  22  23
ATOM     23  S   UNL     1       2.364  -0.812   0.000  0.00  0.00    +0.000 S 
ATOM     24  O   UNL     1       1.650  -1.225   0.000  0.00  0.00    +0.000 OA
ATOM     25  O   UNL     1       3.079  -1.225   0.000  0.00  0.00    +0.000 OA
ENDBRANCH  22  23
ENDBRANCH  13  22
TORSDOF 4
