REMARK  Name = 44259285
REMARK  10 active torsions:
REMARK  status: ('A' for Active; 'I' for Inactive)
REMARK    1  A    between atoms: O_1  and  C_24
REMARK    2  A    between atoms: O_1  and  C_27
REMARK    3  A    between atoms: O_3  and  C_23
REMARK    4  A    between atoms: O_3  and  C_30
REMARK    5  A    between atoms: O_9  and  C_32
REMARK    6  A    between atoms: O_9  and  C_41
REMARK    7  A    between atoms: C_28  and  C_38
REMARK    8  A    between atoms: C_34  and  C_39
REMARK    9  A    between atoms: C_37  and  C_40
REMARK   10  A    between atoms: C_42  and  C_45
REMARK                            x       y       z     vdW  Elec       q    Type
REMARK                         _______ _______ _______ _____ _____    ______ ____
ROOT
ATOM      1  O   UNL     1       5.665   2.535   0.000  0.00  0.00    +0.000 OA
ATOM      2  O   UNL     1       3.522   1.297   0.000  0.00  0.00    +0.000 OA
ATOM      3  O   UNL     1       3.522   2.947   0.000  0.00  0.00    +0.000 OA
ATOM      4  C   UNL     1       4.951   1.297   0.000  0.00  0.00    +0.000 C 
ATOM      5  C   UNL     1       4.236   1.710   0.000  0.00  0.00    +0.000 C 
ATOM      6  C   UNL     1       4.236   2.535   0.000  0.00  0.00    +0.000 C 
ATOM      7  C   UNL     1       5.665   1.710   0.000  0.00  0.00    +0.000 C 
ATOM      8  C   UNL     1       4.951   2.947   0.000  0.00  0.00    +0.000 C 
ENDROOT
BRANCH   8  10
ATOM      9  O   UNL     1       4.236   4.185   0.000  0.00  0.00    +0.000 OA
ATOM     10  C   UNL     1       4.951   3.772   0.000  0.00  0.00    +0.000 C 
ENDBRANCH   8  10
BRANCH   4  11
ATOM     11  O   UNL     1       4.951   0.472   0.000  0.00  0.00    +0.000 OA
BRANCH  11  16
ATOM     12  O   UNL     1       3.522   0.472   0.000  0.00  0.00    +0.000 OA
ATOM     13  O   UNL     1       3.522  -2.003   0.000  0.00  0.00    +0.000 OA
ATOM     14  O   UNL     1       2.093  -1.178   0.000  0.00  0.00    +0.000 OA
ATOM     15  C   UNL     1       4.236  -0.765   0.000  0.00  0.00    +0.000 C 
ATOM     16  C   UNL     1       4.236   0.060   0.000  0.00  0.00    +0.000 C 
ATOM     17  C   UNL     1       3.522  -1.178   0.000  0.00  0.00    +0.000 C 
ATOM     18  C   UNL     1       2.808  -0.765   0.000  0.00  0.00    +0.000 C 
ATOM     19  C   UNL     1       2.808   0.060   0.000  0.00  0.00    +0.000 C 
BRANCH  19  21
ATOM     20  O   UNL     1       2.093   1.297   0.000  0.00  0.00    +0.000 OA
ATOM     21  C   UNL     1       2.093   0.472   0.000  0.00  0.00    +0.000 C 
ENDBRANCH  19  21
BRANCH  15  22
ATOM     22  O   UNL     1       4.951  -1.178   0.000  0.00  0.00    +0.000 OA
BRANCH  22  27
ATOM     23  O   UNL     1       4.236  -2.415   0.000  0.00  0.00    +0.000 OA
ATOM     24  O   UNL     1       6.380  -2.003   0.000  0.00  0.00    +0.000 OA
ATOM     25  O   UNL     1       6.380  -3.653   0.000  0.00  0.00    +0.000 OA
ATOM     26  O   UNL     1       4.951  -4.478   0.000  0.00  0.00    +0.000 OA
ATOM     27  C   UNL     1       4.951  -2.003   0.000  0.00  0.00    +0.000 C 
ATOM     28  C   UNL     1       5.665  -2.415   0.000  0.00  0.00    +0.000 C 
ATOM     29  C   UNL     1       5.665  -3.240   0.000  0.00  0.00    +0.000 C 
ATOM     30  C   UNL     1       4.951  -3.653   0.000  0.00  0.00    +0.000 C 
ATOM     31  C   UNL     1       4.236  -3.240   0.000  0.00  0.00    +0.000 C 
BRANCH  31  33
ATOM     32  O   UNL     1       2.808  -3.240   0.000  0.00  0.00    +0.000 OA
ATOM     33  C   UNL     1       3.522  -3.653   0.000  0.00  0.00    +0.000 C 
ENDBRANCH  31  33
ENDBRANCH  22  27
ENDBRANCH  15  22
ENDBRANCH  11  16
ENDBRANCH   4  11
BRANCH   7  34
ATOM     34  O   UNL     1       6.380   1.297   0.000  0.00  0.00    +0.000 OA
BRANCH  34  39
ATOM     35  O   UNL     1       8.523   1.710   0.000  0.00  0.00    +0.000 OA
ATOM     36  O   UNL     1       6.380   2.947   0.000  0.00  0.00    +0.000 OA
ATOM     37  O   UNL     1       7.076   4.211   0.000  0.00  0.00    +0.000 OA
ATOM     38  O   UNL     1       9.997   4.222   0.000  0.00  0.00    +0.000 OA
ATOM     39  C   UNL     1       7.094   1.710   0.000  0.00  0.00    +0.000 A 
ATOM     40  C   UNL     1       7.809   1.297   0.000  0.00  0.00    +0.000 A 
ATOM     41  C   UNL     1       7.094   2.535   0.000  0.00  0.00    +0.000 A 
ATOM     42  C   UNL     1       7.809   2.947   0.000  0.00  0.00    +0.000 A 
ATOM     43  C   UNL     1       8.523   2.535   0.000  0.00  0.00    +0.000 A 
ATOM     44  C   UNL     1       7.795   3.807   0.000  0.00  0.00    +0.000 A 
ATOM     45  C   UNL     1       9.274   2.953   0.000  0.00  0.00    +0.000 A 
ATOM     46  C   UNL     1       8.536   4.242   0.000  0.00  0.00    +0.000 A 
ATOM     47  C   UNL     1       9.281   3.812   0.000  0.00  0.00    +0.000 A 
BRANCH  40  50
ATOM     48  O   UNL     1       9.238  -1.178   0.000  0.00  0.00    +0.000 OA
ATOM     49  O   UNL     1       7.809  -2.003   0.000  0.00  0.00    +0.000 OA
ATOM     50  C   UNL     1       7.809   0.472   0.000  0.00  0.00    +0.000 A 
ATOM     51  C   UNL     1       8.523   0.060   0.000  0.00  0.00    +0.000 A 
ATOM     52  C   UNL     1       7.094   0.060   0.000  0.00  0.00    +0.000 A 
ATOM     53  C   UNL     1       8.523  -0.765   0.000  0.00  0.00    +0.000 A 
ATOM     54  C   UNL     1       7.094  -0.765   0.000  0.00  0.00    +0.000 A 
ATOM     55  C   UNL     1       7.809  -1.178   0.000  0.00  0.00    +0.000 A 
ENDBRANCH  40  50
ENDBRANCH  34  39
ENDBRANCH   7  34
TORSDOF 10
