REMARK  Name = 51666248
REMARK  4 active torsions:
REMARK  status: ('A' for Active; 'I' for Inactive)
REMARK    1  A    between atoms: O_2  and  C_14
REMARK    2  A    between atoms: O_2  and  C_16
REMARK    3  A    between atoms: C_13  and  C_15
REMARK    4  A    between atoms: C_17  and  C_25
REMARK                            x       y       z     vdW  Elec       q    Type
REMARK                         _______ _______ _______ _____ _____    ______ ____
ROOT
ATOM      1  O   UNL     1       7.114   1.141   0.000  0.00  0.00    +0.000 OA
ATOM      2  O   UNL     1       4.975   2.387   0.000  0.00  0.00    +0.000 OA
ATOM      3  C   UNL     1       5.665  -0.561   0.000  0.00  0.00    +0.000 A 
ATOM      4  C   UNL     1       7.117   1.966   0.000  0.00  0.00    +0.000 C 
ATOM      5  C   UNL     1       6.404   2.381   0.000  0.00  0.00    +0.000 C 
ATOM      6  C   UNL     1       6.398   0.731   0.000  0.00  0.00    +0.000 A 
ATOM      7  C   UNL     1       5.685   1.146   0.000  0.00  0.00    +0.000 A 
ATOM      8  C   UNL     1       6.408  -0.128   0.000  0.00  0.00    +0.000 A 
ATOM      9  C   UNL     1       5.688   1.971   0.000  0.00  0.00    +0.000 C 
ATOM     10  C   UNL     1       4.923  -0.128   0.000  0.00  0.00    +0.000 A 
ATOM     11  C   UNL     1       4.933   0.731   0.000  0.00  0.00    +0.000 A 
ENDROOT
BRANCH   4  13
ATOM     12  O   UNL     1       9.981   3.605   0.000  0.00  0.00    +0.000 OA
ATOM     13  C   UNL     1       7.833   2.376   0.000  0.00  0.00    +0.000 A 
ATOM     14  C   UNL     1       7.836   3.201   0.000  0.00  0.00    +0.000 A 
ATOM     15  C   UNL     1       8.546   1.960   0.000  0.00  0.00    +0.000 A 
ATOM     16  C   UNL     1       8.552   3.610   0.000  0.00  0.00    +0.000 A 
ATOM     17  C   UNL     1       9.262   2.370   0.000  0.00  0.00    +0.000 A 
ATOM     18  C   UNL     1       9.265   3.195   0.000  0.00  0.00    +0.000 A 
ENDBRANCH   4  13
BRANCH   3  19
ATOM     19  O   UNL     1       5.665  -1.386   0.000  0.00  0.00    +0.000 OA
BRANCH  19  28
ATOM     20  O   UNL     1       4.236  -1.386   0.000  0.00  0.00    +0.000 OA
ATOM     21  O   UNL     1       4.236  -3.861   0.000  0.00  0.00    +0.000 OA
ATOM     22  O   UNL     1       2.808  -3.036   0.000  0.00  0.00    +0.000 OA
ATOM     23  O   UNL     1       5.665  -3.036   0.000  0.00  0.00    +0.000 OA
ATOM     24  C   UNL     1       4.236  -3.036   0.000  0.00  0.00    +0.000 C 
ATOM     25  C   UNL     1       3.522  -2.623   0.000  0.00  0.00    +0.000 C 
ATOM     26  C   UNL     1       4.951  -2.623   0.000  0.00  0.00    +0.000 C 
ATOM     27  C   UNL     1       3.522  -1.798   0.000  0.00  0.00    +0.000 C 
ATOM     28  C   UNL     1       4.951  -1.798   0.000  0.00  0.00    +0.000 C 
BRANCH  27  30
ATOM     29  O   UNL     1       2.093  -1.798   0.000  0.00  0.00    +0.000 OA
ATOM     30  C   UNL     1       2.808  -1.386   0.000  0.00  0.00    +0.000 C 
ENDBRANCH  27  30
ENDBRANCH  19  28
ENDBRANCH   3  19
TORSDOF 4
