REMARK  Name = 131751771
REMARK  6 active torsions:
REMARK  status: ('A' for Active; 'I' for Inactive)
REMARK    1  A    between atoms: O_2  and  C_19
REMARK    2  A    between atoms: O_2  and  C_21
REMARK    3  A    between atoms: O_6  and  C_20
REMARK    4  A    between atoms: O_6  and  C_27
REMARK    5  A    between atoms: C_17  and  C_20
REMARK    6  A    between atoms: C_22  and  C_26
REMARK                            x       y       z     vdW  Elec       q    Type
REMARK                         _______ _______ _______ _____ _____    ______ ____
ROOT
ATOM      1  O   UNL     1       7.366   1.002   0.000  0.00  0.00    +0.000 OA
ATOM      2  O   UNL     1       5.222  -0.236   0.000  0.00  0.00    +0.000 OA
ATOM      3  O   UNL     1       4.476   0.999   0.000  0.00  0.00    +0.000 OA
ATOM      4  O   UNL     1       5.927   3.534   0.000  0.00  0.00    +0.000 OA
ATOM      5  C   UNL     1       6.651  -0.236   0.000  0.00  0.00    +0.000 A 
ATOM      6  C   UNL     1       7.366   0.177   0.000  0.00  0.00    +0.000 A 
ATOM      7  C   UNL     1       5.937   0.177   0.000  0.00  0.00    +0.000 A 
ATOM      8  C   UNL     1       5.937   1.002   0.000  0.00  0.00    +0.000 A 
ATOM      9  C   UNL     1       6.651   1.414   0.000  0.00  0.00    +0.000 A 
ATOM     10  C   UNL     1       5.186   1.420   0.000  0.00  0.00    +0.000 A 
ATOM     11  C   UNL     1       6.665   2.273   0.000  0.00  0.00    +0.000 A 
ATOM     12  C   UNL     1       5.179   2.279   0.000  0.00  0.00    +0.000 A 
ATOM     13  C   UNL     1       5.924   2.709   0.000  0.00  0.00    +0.000 A 
ENDROOT
BRANCH   6  17
ATOM     14  O   UNL     1       8.795  -2.298   0.000  0.00  0.00    +0.000 OA
ATOM     15  O   UNL     1      10.224   0.177   0.000  0.00  0.00    +0.000 OA
ATOM     16  O   UNL     1      10.224  -1.473   0.000  0.00  0.00    +0.000 OA
ATOM     17  C   UNL     1       8.080  -0.236   0.000  0.00  0.00    +0.000 A 
ATOM     18  C   UNL     1       8.795   0.177   0.000  0.00  0.00    +0.000 A 
ATOM     19  C   UNL     1       8.080  -1.061   0.000  0.00  0.00    +0.000 A 
ATOM     20  C   UNL     1       8.795  -1.473   0.000  0.00  0.00    +0.000 A 
ATOM     21  C   UNL     1       9.509  -0.236   0.000  0.00  0.00    +0.000 A 
ATOM     22  C   UNL     1       9.509  -1.061   0.000  0.00  0.00    +0.000 A 
ENDBRANCH   6  17
BRANCH   5  23
ATOM     23  O   UNL     1       6.651  -1.061   0.000  0.00  0.00    +0.000 OA
BRANCH  23  32
ATOM     24  O   UNL     1       5.222  -1.061   0.000  0.00  0.00    +0.000 OA
ATOM     25  O   UNL     1       3.793  -2.711   0.000  0.00  0.00    +0.000 OA
ATOM     26  O   UNL     1       5.222  -3.536   0.000  0.00  0.00    +0.000 OA
ATOM     27  O   UNL     1       6.651  -2.711   0.000  0.00  0.00    +0.000 OA
ATOM     28  C   UNL     1       4.508  -2.298   0.000  0.00  0.00    +0.000 C 
ATOM     29  C   UNL     1       5.222  -2.711   0.000  0.00  0.00    +0.000 C 
ATOM     30  C   UNL     1       4.508  -1.473   0.000  0.00  0.00    +0.000 C 
ATOM     31  C   UNL     1       5.937  -2.298   0.000  0.00  0.00    +0.000 C 
ATOM     32  C   UNL     1       5.937  -1.473   0.000  0.00  0.00    +0.000 C 
BRANCH  30  33
ATOM     33  C   UNL     1       3.793  -1.061   0.000  0.00  0.00    +0.000 C 
BRANCH  33  34
ATOM     34  O   UNL     1       3.079  -1.473   0.000  0.00  0.00    +0.000 OA
BRANCH  34  36
ATOM     35  O   UNL     1       2.365  -0.236   0.000  0.00  0.00    +0.000 OA
ATOM     36  C   UNL     1       2.365  -1.061   0.000  0.00  0.00    +0.000 C 
ATOM     37  C   UNL     1       1.650  -1.473   0.000  0.00  0.00    +0.000 C 
ENDBRANCH  34  36
ENDBRANCH  33  34
ENDBRANCH  30  33
ENDBRANCH  23  32
ENDBRANCH   5  23
TORSDOF 6
