REMARK  Name = 131752322
REMARK  9 active torsions:
REMARK  status: ('A' for Active; 'I' for Inactive)
REMARK    1  A    between atoms: O_1  and  C_18
REMARK    2  A    between atoms: O_1  and  C_21
REMARK    3  A    between atoms: O_5  and  C_23
REMARK    4  A    between atoms: O_5  and  C_30
REMARK    5  A    between atoms: O_15  and  C_41
REMARK    6  A    between atoms: O_16  and  C_42
REMARK    7  A    between atoms: C_24  and  C_28
REMARK    8  A    between atoms: C_27  and  C_29
REMARK    9  A    between atoms: C_31  and  C_34
REMARK                            x       y       z     vdW  Elec       q    Type
REMARK                         _______ _______ _______ _____ _____    ______ ____
ROOT
ATOM      1  O   UNL     1       5.665   0.098   0.000  0.00  0.00    +0.000 OA
ENDROOT
BRANCH   1   5
ATOM      2  O   UNL     1       6.380   2.160   0.000  0.00  0.00    +0.000 OA
ATOM      3  O   UNL     1       4.236   0.923   0.000  0.00  0.00    +0.000 OA
ATOM      4  O   UNL     1       3.490   2.158   0.000  0.00  0.00    +0.000 OA
ATOM      5  C   UNL     1       5.665   0.923   0.000  0.00  0.00    +0.000 A 
ATOM      6  C   UNL     1       6.380   1.335   0.000  0.00  0.00    +0.000 A 
ATOM      7  C   UNL     1       4.951   1.335   0.000  0.00  0.00    +0.000 A 
ATOM      8  C   UNL     1       4.951   2.160   0.000  0.00  0.00    +0.000 A 
ATOM      9  C   UNL     1       5.665   2.573   0.000  0.00  0.00    +0.000 A 
ATOM     10  C   UNL     1       4.200   2.579   0.000  0.00  0.00    +0.000 A 
ATOM     11  C   UNL     1       5.679   3.432   0.000  0.00  0.00    +0.000 A 
ATOM     12  C   UNL     1       4.194   3.438   0.000  0.00  0.00    +0.000 A 
ATOM     13  C   UNL     1       4.938   3.868   0.000  0.00  0.00    +0.000 A 
BRANCH   6  15
ATOM     14  O   UNL     1       9.238  -0.315   0.000  0.00  0.00    +0.000 OA
ATOM     15  C   UNL     1       7.094   0.923   0.000  0.00  0.00    +0.000 A 
ATOM     16  C   UNL     1       7.809   1.335   0.000  0.00  0.00    +0.000 A 
ATOM     17  C   UNL     1       7.094   0.098   0.000  0.00  0.00    +0.000 A 
ATOM     18  C   UNL     1       8.523   0.923   0.000  0.00  0.00    +0.000 A 
ATOM     19  C   UNL     1       7.809  -0.315   0.000  0.00  0.00    +0.000 A 
ATOM     20  C   UNL     1       8.523   0.098   0.000  0.00  0.00    +0.000 A 
BRANCH  18  21
ATOM     21  O   UNL     1       9.238   1.335   0.000  0.00  0.00    +0.000 OA
ATOM     22  C   UNL     1       9.238   2.160   0.000  0.00  0.00    +0.000 C 
ENDBRANCH  18  21
ENDBRANCH   6  15
BRANCH  13  23
ATOM     23  O   UNL     1       4.941   4.693   0.000  0.00  0.00    +0.000 OA
ATOM     24  C   UNL     1       4.228   5.108   0.000  0.00  0.00    +0.000 C 
ENDBRANCH  13  23
ENDBRANCH   1   5
BRANCH   1  31
ATOM     25  O   UNL     1       4.236   0.098   0.000  0.00  0.00    +0.000 OA
ATOM     26  O   UNL     1       4.236  -2.377   0.000  0.00  0.00    +0.000 OA
ATOM     27  O   UNL     1       2.808  -1.552   0.000  0.00  0.00    +0.000 OA
ATOM     28  C   UNL     1       4.951  -1.140   0.000  0.00  0.00    +0.000 C 
ATOM     29  C   UNL     1       4.236  -1.552   0.000  0.00  0.00    +0.000 C 
ATOM     30  C   UNL     1       3.522  -1.140   0.000  0.00  0.00    +0.000 C 
ATOM     31  C   UNL     1       4.951  -0.315   0.000  0.00  0.00    +0.000 C 
ATOM     32  C   UNL     1       3.522  -0.315   0.000  0.00  0.00    +0.000 C 
BRANCH  32  34
ATOM     33  O   UNL     1       2.093  -0.315   0.000  0.00  0.00    +0.000 OA
ATOM     34  C   UNL     1       2.808   0.098   0.000  0.00  0.00    +0.000 C 
ENDBRANCH  32  34
BRANCH  28  35
ATOM     35  O   UNL     1       5.665  -1.552   0.000  0.00  0.00    +0.000 OA
BRANCH  35  40
ATOM     36  O   UNL     1       4.951  -2.790   0.000  0.00  0.00    +0.000 OA
ATOM     37  O   UNL     1       7.094  -2.377   0.000  0.00  0.00    +0.000 OA
ATOM     38  O   UNL     1       7.094  -4.027   0.000  0.00  0.00    +0.000 OA
ATOM     39  O   UNL     1       5.665  -4.852   0.000  0.00  0.00    +0.000 OA
ATOM     40  C   UNL     1       5.665  -2.377   0.000  0.00  0.00    +0.000 C 
ATOM     41  C   UNL     1       6.380  -2.790   0.000  0.00  0.00    +0.000 C 
ATOM     42  C   UNL     1       6.380  -3.615   0.000  0.00  0.00    +0.000 C 
ATOM     43  C   UNL     1       5.665  -4.027   0.000  0.00  0.00    +0.000 C 
ATOM     44  C   UNL     1       4.951  -3.615   0.000  0.00  0.00    +0.000 C 
BRANCH  44  46
ATOM     45  O   UNL     1       3.522  -3.615   0.000  0.00  0.00    +0.000 OA
ATOM     46  C   UNL     1       4.236  -4.027   0.000  0.00  0.00    +0.000 C 
ENDBRANCH  44  46
ENDBRANCH  35  40
ENDBRANCH  28  35
ENDBRANCH   1  31
TORSDOF 9
