REMARK  Name = 131752944
REMARK  14 active torsions:
REMARK  status: ('A' for Active; 'I' for Inactive)
REMARK    1  A    between atoms: O_1  and  C_24
REMARK    2  A    between atoms: O_1  and  C_26
REMARK    3  A    between atoms: O_4  and  C_27
REMARK    4  A    between atoms: O_4  and  C_42
REMARK    5  A    between atoms: O_5  and  C_30
REMARK    6  A    between atoms: O_5  and  C_41
REMARK    7  A    between atoms: O_13  and  C_40
REMARK    8  A    between atoms: O_13  and  C_48
REMARK    9  A    between atoms: C_32  and  C_34
REMARK   10  A    between atoms: C_33  and  C_35
REMARK   11  A    between atoms: C_39  and  C_43
REMARK   12  A    between atoms: C_42  and  C_49
REMARK   13  A    between atoms: C_44  and  C_51
REMARK   14  A    between atoms: C_54  and  C_59
REMARK                            x       y       z     vdW  Elec       q    Type
REMARK                         _______ _______ _______ _____ _____    ______ ____
ROOT
ATOM      1  O   UNL     1       4.245  -1.395   0.000  0.00  0.00    +0.000 OA
ATOM      2  O   UNL     1       4.245  -3.870   0.000  0.00  0.00    +0.000 OA
ATOM      3  O   UNL     1       2.816  -3.045   0.000  0.00  0.00    +0.000 OA
ATOM      4  C   UNL     1       4.960  -2.633   0.000  0.00  0.00    +0.000 C 
ATOM      5  C   UNL     1       4.245  -3.045   0.000  0.00  0.00    +0.000 C 
ATOM      6  C   UNL     1       3.531  -2.633   0.000  0.00  0.00    +0.000 C 
ATOM      7  C   UNL     1       4.960  -1.808   0.000  0.00  0.00    +0.000 C 
ATOM      8  C   UNL     1       3.531  -1.808   0.000  0.00  0.00    +0.000 C 
ENDROOT
BRANCH   8  10
ATOM      9  O   UNL     1       2.102  -1.808   0.000  0.00  0.00    +0.000 OA
ATOM     10  C   UNL     1       2.816  -1.395   0.000  0.00  0.00    +0.000 C 
ENDBRANCH   8  10
BRANCH   4  11
ATOM     11  O   UNL     1       5.674  -3.045   0.000  0.00  0.00    +0.000 OA
BRANCH  11  15
ATOM     12  O   UNL     1       4.960  -4.283   0.000  0.00  0.00    +0.000 OA
ATOM     13  O   UNL     1       7.103  -5.520   0.000  0.00  0.00    +0.000 OA
ATOM     14  O   UNL     1       5.674  -6.345   0.000  0.00  0.00    +0.000 OA
ATOM     15  C   UNL     1       5.674  -3.870   0.000  0.00  0.00    +0.000 C 
ATOM     16  C   UNL     1       6.389  -4.283   0.000  0.00  0.00    +0.000 C 
ATOM     17  C   UNL     1       6.389  -5.108   0.000  0.00  0.00    +0.000 C 
ATOM     18  C   UNL     1       5.674  -5.520   0.000  0.00  0.00    +0.000 C 
ATOM     19  C   UNL     1       4.960  -5.108   0.000  0.00  0.00    +0.000 C 
BRANCH  19  21
ATOM     20  O   UNL     1       4.245  -6.345   0.000  0.00  0.00    +0.000 OA
ATOM     21  C   UNL     1       4.245  -5.520   0.000  0.00  0.00    +0.000 C 
ENDBRANCH  19  21
BRANCH  16  22
ATOM     22  O   UNL     1       7.103  -3.870   0.000  0.00  0.00    +0.000 OA
BRANCH  22  24
ATOM     23  O   UNL     1       7.818  -5.108   0.000  0.00  0.00    +0.000 OA
ATOM     24  C   UNL     1       7.818  -4.283   0.000  0.00  0.00    +0.000 C 
BRANCH  24  25
ATOM     25  C   UNL     1       8.532  -3.870   0.000  0.00  0.00    +0.000 C 
ATOM     26  C   UNL     1       9.247  -4.283   0.000  0.00  0.00    +0.000 C 
BRANCH  26  28
ATOM     27  O   UNL     1      12.105  -2.633   0.000  0.00  0.00    +0.000 OA
ATOM     28  C   UNL     1       9.961  -3.870   0.000  0.00  0.00    +0.000 A 
ATOM     29  C   UNL     1       9.961  -3.045   0.000  0.00  0.00    +0.000 A 
ATOM     30  C   UNL     1      10.676  -4.283   0.000  0.00  0.00    +0.000 A 
ATOM     31  C   UNL     1      10.676  -2.633   0.000  0.00  0.00    +0.000 A 
ATOM     32  C   UNL     1      11.390  -3.870   0.000  0.00  0.00    +0.000 A 
ATOM     33  C   UNL     1      11.390  -3.045   0.000  0.00  0.00    +0.000 A 
ENDBRANCH  26  28
ENDBRANCH  24  25
ENDBRANCH  22  24
ENDBRANCH  16  22
ENDBRANCH  11  15
ENDBRANCH   4  11
BRANCH   7  34
ATOM     34  O   UNL     1       5.674  -1.395   0.000  0.00  0.00    +0.000 OA
BRANCH  34  38
ATOM     35  O   UNL     1       6.389   0.667   0.000  0.00  0.00    +0.000 OA
ATOM     36  O   UNL     1       4.245  -0.570   0.000  0.00  0.00    +0.000 OA
ATOM     37  O   UNL     1       3.499   0.665   0.000  0.00  0.00    +0.000 OA
ATOM     38  C   UNL     1       5.674  -0.570   0.000  0.00  0.00    +0.000 A 
ATOM     39  C   UNL     1       6.389  -0.158   0.000  0.00  0.00    +0.000 A 
ATOM     40  C   UNL     1       4.960  -0.158   0.000  0.00  0.00    +0.000 A 
ATOM     41  C   UNL     1       4.960   0.667   0.000  0.00  0.00    +0.000 A 
ATOM     42  C   UNL     1       5.674   1.080   0.000  0.00  0.00    +0.000 A 
ATOM     43  C   UNL     1       4.947   2.374   0.000  0.00  0.00    +0.000 A 
ATOM     44  C   UNL     1       5.688   1.939   0.000  0.00  0.00    +0.000 A 
ATOM     45  C   UNL     1       4.209   1.085   0.000  0.00  0.00    +0.000 A 
ATOM     46  C   UNL     1       4.202   1.945   0.000  0.00  0.00    +0.000 A 
BRANCH  39  48
ATOM     47  O   UNL     1       9.247  -1.808   0.000  0.00  0.00    +0.000 OA
ATOM     48  C   UNL     1       7.103  -0.570   0.000  0.00  0.00    +0.000 A 
ATOM     49  C   UNL     1       7.103  -1.395   0.000  0.00  0.00    +0.000 A 
ATOM     50  C   UNL     1       7.818  -0.158   0.000  0.00  0.00    +0.000 A 
ATOM     51  C   UNL     1       7.818  -1.808   0.000  0.00  0.00    +0.000 A 
ATOM     52  C   UNL     1       8.532  -0.570   0.000  0.00  0.00    +0.000 A 
ATOM     53  C   UNL     1       8.532  -1.395   0.000  0.00  0.00    +0.000 A 
ENDBRANCH  39  48
BRANCH  43  54
ATOM     54  O   UNL     1       4.950   3.199   0.000  0.00  0.00    +0.000 OA
BRANCH  54  63
ATOM     55  O   UNL     1       4.240   4.440   0.000  0.00  0.00    +0.000 OA
ATOM     56  O   UNL     1       2.092   3.210   0.000  0.00  0.00    +0.000 OA
ATOM     57  O   UNL     1       2.098   4.860   0.000  0.00  0.00    +0.000 OA
ATOM     58  O   UNL     1       3.518   2.380   0.000  0.00  0.00    +0.000 OA
ATOM     59  C   UNL     1       2.808   3.620   0.000  0.00  0.00    +0.000 C 
ATOM     60  C   UNL     1       2.811   4.445   0.000  0.00  0.00    +0.000 C 
ATOM     61  C   UNL     1       3.521   3.205   0.000  0.00  0.00    +0.000 C 
ATOM     62  C   UNL     1       3.527   4.855   0.000  0.00  0.00    +0.000 C 
ATOM     63  C   UNL     1       4.237   3.615   0.000  0.00  0.00    +0.000 C 
BRANCH  62  65
ATOM     64  O   UNL     1       4.247   6.090   0.000  0.00  0.00    +0.000 OA
ATOM     65  C   UNL     1       3.530   5.680   0.000  0.00  0.00    +0.000 C 
ENDBRANCH  62  65
ENDBRANCH  54  63
ENDBRANCH  43  54
ENDBRANCH  34  38
ENDBRANCH   7  34
TORSDOF 14
