REMARK  Name = 44258878
REMARK  11 active torsions:
REMARK  status: ('A' for Active; 'I' for Inactive)
REMARK    1  A    between atoms: O_3  and  C_26
REMARK    2  A    between atoms: O_3  and  C_32
REMARK    3  A    between atoms: O_7  and  C_29
REMARK    4  A    between atoms: O_7  and  C_33
REMARK    5  A    between atoms: O_11  and  C_30
REMARK    6  A    between atoms: O_11  and  C_41
REMARK    7  A    between atoms: C_22  and  C_30
REMARK    8  A    between atoms: C_28  and  C_31
REMARK    9  A    between atoms: C_36  and  C_42
REMARK   10  A    between atoms: C_41  and  C_43
REMARK   11  A    between atoms: C_43  and  C_48
REMARK                            x       y       z     vdW  Elec       q    Type
REMARK                         _______ _______ _______ _____ _____    ______ ____
ROOT
ATOM      1  O   UNL     1       9.238  -0.238   0.000  0.00  0.00    +0.000 OA
ATOM      2  O   UNL     1       7.094  -1.476   0.000  0.00  0.00    +0.000 OA
ATOM      3  O   UNL     1       6.348  -0.241   0.000  0.00  0.00    +0.000 OA
ATOM      4  C   UNL     1       8.523  -1.476   0.000  0.00  0.00    +0.000 A 
ATOM      5  C   UNL     1       7.796   1.469   0.000  0.00  0.00    +0.000 A 
ATOM      6  C   UNL     1       7.809  -0.238   0.000  0.00  0.00    +0.000 A 
ATOM      7  C   UNL     1       7.809  -1.063   0.000  0.00  0.00    +0.000 A 
ATOM      8  C   UNL     1       9.238  -1.063   0.000  0.00  0.00    +0.000 A 
ATOM      9  C   UNL     1       8.523   0.174   0.000  0.00  0.00    +0.000 A 
ATOM     10  C   UNL     1       8.536   1.033   0.000  0.00  0.00    +0.000 A 
ATOM     11  C   UNL     1       7.051   1.039   0.000  0.00  0.00    +0.000 A 
ATOM     12  C   UNL     1       7.058   0.180   0.000  0.00  0.00    +0.000 A 
ENDROOT
BRANCH   8  14
ATOM     13  O   UNL     1      12.096  -2.713   0.000  0.00  0.00    +0.000 OA
ATOM     14  C   UNL     1       9.952  -1.476   0.000  0.00  0.00    +0.000 A 
ATOM     15  C   UNL     1       9.952  -2.301   0.000  0.00  0.00    +0.000 A 
ATOM     16  C   UNL     1      10.667  -1.063   0.000  0.00  0.00    +0.000 A 
ATOM     17  C   UNL     1      10.667  -2.713   0.000  0.00  0.00    +0.000 A 
ATOM     18  C   UNL     1      11.381  -1.476   0.000  0.00  0.00    +0.000 A 
ATOM     19  C   UNL     1      11.381  -2.301   0.000  0.00  0.00    +0.000 A 
ENDBRANCH   8  14
BRANCH   4  20
ATOM     20  O   UNL     1       8.523  -2.301   0.000  0.00  0.00    +0.000 OA
BRANCH  20  29
ATOM     21  O   UNL     1       7.094  -2.301   0.000  0.00  0.00    +0.000 OA
ATOM     22  O   UNL     1       5.665  -3.951   0.000  0.00  0.00    +0.000 OA
ATOM     23  O   UNL     1       7.094  -4.776   0.000  0.00  0.00    +0.000 OA
ATOM     24  O   UNL     1       8.523  -3.951   0.000  0.00  0.00    +0.000 OA
ATOM     25  C   UNL     1       6.380  -3.538   0.000  0.00  0.00    +0.000 C 
ATOM     26  C   UNL     1       7.094  -3.951   0.000  0.00  0.00    +0.000 C 
ATOM     27  C   UNL     1       6.380  -2.713   0.000  0.00  0.00    +0.000 C 
ATOM     28  C   UNL     1       7.809  -3.538   0.000  0.00  0.00    +0.000 C 
ATOM     29  C   UNL     1       7.809  -2.713   0.000  0.00  0.00    +0.000 C 
BRANCH  27  30
ATOM     30  C   UNL     1       5.665  -2.301   0.000  0.00  0.00    +0.000 C 
BRANCH  30  31
ATOM     31  O   UNL     1       4.951  -2.713   0.000  0.00  0.00    +0.000 OA
BRANCH  31  33
ATOM     32  O   UNL     1       4.236  -1.476   0.000  0.00  0.00    +0.000 OA
ATOM     33  C   UNL     1       4.236  -2.301   0.000  0.00  0.00    +0.000 C 
BRANCH  33  34
ATOM     34  C   UNL     1       3.522  -2.713   0.000  0.00  0.00    +0.000 C 
BRANCH  34  37
ATOM     35  O   UNL     1       2.093  -2.713   0.000  0.00  0.00    +0.000 OA
ATOM     36  O   UNL     1       2.808  -1.476   0.000  0.00  0.00    +0.000 OA
ATOM     37  C   UNL     1       2.808  -2.301   0.000  0.00  0.00    +0.000 C 
ENDBRANCH  34  37
ENDBRANCH  33  34
ENDBRANCH  31  33
ENDBRANCH  30  31
ENDBRANCH  27  30
ENDBRANCH  20  29
ENDBRANCH   4  20
BRANCH   5  38
ATOM     38  O   UNL     1       7.799   2.294   0.000  0.00  0.00    +0.000 OA
BRANCH  38  47
ATOM     39  O   UNL     1       6.370   2.299   0.000  0.00  0.00    +0.000 OA
ATOM     40  O   UNL     1       6.379   4.774   0.000  0.00  0.00    +0.000 OA
ATOM     41  O   UNL     1       4.947   3.955   0.000  0.00  0.00    +0.000 OA
ATOM     42  O   UNL     1       7.805   3.944   0.000  0.00  0.00    +0.000 OA
ATOM     43  C   UNL     1       6.376   3.949   0.000  0.00  0.00    +0.000 C 
ATOM     44  C   UNL     1       5.660   3.539   0.000  0.00  0.00    +0.000 C 
ATOM     45  C   UNL     1       7.089   3.534   0.000  0.00  0.00    +0.000 C 
ATOM     46  C   UNL     1       5.657   2.715   0.000  0.00  0.00    +0.000 C 
ATOM     47  C   UNL     1       7.086   2.709   0.000  0.00  0.00    +0.000 C 
BRANCH  46  49
ATOM     48  O   UNL     1       4.228   2.720   0.000  0.00  0.00    +0.000 OA
ATOM     49  C   UNL     1       4.941   2.305   0.000  0.00  0.00    +0.000 C 
ENDBRANCH  46  49
ENDBRANCH  38  47
ENDBRANCH   5  38
TORSDOF 11
