REMARK  Name = 44259223
REMARK  3 active torsions:
REMARK  status: ('A' for Active; 'I' for Inactive)
REMARK    1  A    between atoms: O_2  and  C_15
REMARK    2  A    between atoms: O_2  and  C_17
REMARK    3  A    between atoms: C_24  and  C_26
REMARK                            x       y       z     vdW  Elec       q    Type
REMARK                         _______ _______ _______ _____ _____    ______ ____
ROOT
ATOM      1  O   UNL     1       7.864  -0.223   0.000  0.00  0.00    +0.000 OA
ATOM      2  O   UNL     1       6.422   2.280   0.000  0.00  0.00    +0.000 OA
ATOM      3  O   UNL     1       9.293   1.427   0.000  0.00  0.00    +0.000 OA
ATOM      4  O   UNL     1       7.864   2.252   0.000  0.00  0.00    +0.000 OA
ATOM      5  C   UNL     1       5.665   0.172   0.000  0.00  0.00    +0.000 A 
ATOM      6  C   UNL     1       6.412  -0.252   0.000  0.00  0.00    +0.000 A 
ATOM      7  C   UNL     1       7.150   0.189   0.000  0.00  0.00    +0.000 A 
ATOM      8  C   UNL     1       5.665   1.032   0.000  0.00  0.00    +0.000 A 
ATOM      9  C   UNL     1       7.150   1.014   0.000  0.00  0.00    +0.000 A 
ATOM     10  C   UNL     1       6.412   1.456   0.000  0.00  0.00    +0.000 A 
ATOM     11  C   UNL     1       7.864   1.427   0.000  0.00  0.00    +0.000 A 
ATOM     12  C   UNL     1       8.579   0.189   0.000  0.00  0.00    +0.000 A 
ATOM     13  C   UNL     1       8.579   1.014   0.000  0.00  0.00    +0.000 A 
ENDROOT
BRANCH  12  16
ATOM     14  O   UNL     1      10.008  -2.286   0.000  0.00  0.00    +0.000 OA
ATOM     15  O   UNL     1      11.437  -1.461   0.000  0.00  0.00    +0.000 OA
ATOM     16  C   UNL     1       9.293  -0.223   0.000  0.00  0.00    +0.000 A 
ATOM     17  C   UNL     1       9.293  -1.048   0.000  0.00  0.00    +0.000 A 
ATOM     18  C   UNL     1      10.008   0.189   0.000  0.00  0.00    +0.000 A 
ATOM     19  C   UNL     1      10.008  -1.461   0.000  0.00  0.00    +0.000 A 
ATOM     20  C   UNL     1      10.722  -0.223   0.000  0.00  0.00    +0.000 A 
ATOM     21  C   UNL     1      10.722  -1.048   0.000  0.00  0.00    +0.000 A 
ENDBRANCH  12  16
BRANCH   5  22
ATOM     22  O   UNL     1       4.952  -0.243   0.000  0.00  0.00    +0.000 OA
BRANCH  22  30
ATOM     23  O   UNL     1       4.233   0.992   0.000  0.00  0.00    +0.000 OA
ATOM     24  O   UNL     1       2.094  -0.254   0.000  0.00  0.00    +0.000 OA
ATOM     25  O   UNL     1       3.526  -1.073   0.000  0.00  0.00    +0.000 OA
ATOM     26  O   UNL     1       2.088   1.396   0.000  0.00  0.00    +0.000 OA
ATOM     27  C   UNL     1       2.807   0.161   0.000  0.00  0.00    +0.000 C 
ATOM     28  C   UNL     1       3.523  -0.248   0.000  0.00  0.00    +0.000 C 
ATOM     29  C   UNL     1       2.804   0.986   0.000  0.00  0.00    +0.000 C 
ATOM     30  C   UNL     1       4.236   0.167   0.000  0.00  0.00    +0.000 C 
ATOM     31  C   UNL     1       3.517   1.401   0.000  0.00  0.00    +0.000 C 
ENDBRANCH  22  30
ENDBRANCH   5  22
TORSDOF 3
