REMARK  Name = 74978072
REMARK  5 active torsions:
REMARK  status: ('A' for Active; 'I' for Inactive)
REMARK    1  A    between atoms: O_2  and  C_19
REMARK    2  A    between atoms: O_2  and  C_26
REMARK    3  A    between atoms: O_7  and  C_24
REMARK    4  A    between atoms: O_7  and  C_29
REMARK    5  A    between atoms: C_27  and  C_30
REMARK                            x       y       z     vdW  Elec       q    Type
REMARK                         _______ _______ _______ _____ _____    ______ ____
ROOT
ATOM      1  O   UNL     1       5.665   1.002   0.000  0.00  0.00    +0.000 OA
ATOM      2  O   UNL     1       3.522  -0.236   0.000  0.00  0.00    +0.000 OA
ATOM      3  O   UNL     1       2.776   0.999   0.000  0.00  0.00    +0.000 OA
ATOM      4  O   UNL     1       4.226   3.534   0.000  0.00  0.00    +0.000 OA
ATOM      5  C   UNL     1       4.951  -0.236   0.000  0.00  0.00    +0.000 A 
ATOM      6  C   UNL     1       5.665   0.177   0.000  0.00  0.00    +0.000 A 
ATOM      7  C   UNL     1       4.236   0.177   0.000  0.00  0.00    +0.000 A 
ATOM      8  C   UNL     1       4.236   1.002   0.000  0.00  0.00    +0.000 A 
ATOM      9  C   UNL     1       4.951   1.414   0.000  0.00  0.00    +0.000 A 
ATOM     10  C   UNL     1       3.486   1.420   0.000  0.00  0.00    +0.000 A 
ATOM     11  C   UNL     1       4.964   2.273   0.000  0.00  0.00    +0.000 A 
ATOM     12  C   UNL     1       3.479   2.279   0.000  0.00  0.00    +0.000 A 
ATOM     13  C   UNL     1       4.223   2.709   0.000  0.00  0.00    +0.000 A 
ENDROOT
BRANCH   6  15
ATOM     14  C   UNL     1       7.809  -1.061   0.000  0.00  0.00    +0.000 A 
ATOM     15  C   UNL     1       6.380  -0.236   0.000  0.00  0.00    +0.000 A 
ATOM     16  C   UNL     1       7.094  -1.473   0.000  0.00  0.00    +0.000 A 
ATOM     17  C   UNL     1       7.809  -0.236   0.000  0.00  0.00    +0.000 A 
ATOM     18  C   UNL     1       6.380  -1.061   0.000  0.00  0.00    +0.000 A 
ATOM     19  C   UNL     1       7.094   0.177   0.000  0.00  0.00    +0.000 A 
BRANCH  14  20
ATOM     20  O   UNL     1       8.523  -1.473   0.000  0.00  0.00    +0.000 OA
BRANCH  20  28
ATOM     21  O   UNL     1       9.952  -1.473   0.000  0.00  0.00    +0.000 OA
ATOM     22  O   UNL     1       9.952   1.002   0.000  0.00  0.00    +0.000 OA
ATOM     23  O   UNL     1       8.523   0.177   0.000  0.00  0.00    +0.000 OA
ATOM     24  O   UNL     1      11.381   0.177   0.000  0.00  0.00    +0.000 OA
ATOM     25  C   UNL     1       9.952   0.177   0.000  0.00  0.00    +0.000 C 
ATOM     26  C   UNL     1       9.238  -0.236   0.000  0.00  0.00    +0.000 C 
ATOM     27  C   UNL     1      10.667  -0.236   0.000  0.00  0.00    +0.000 C 
ATOM     28  C   UNL     1       9.238  -1.061   0.000  0.00  0.00    +0.000 C 
ATOM     29  C   UNL     1      10.667  -1.061   0.000  0.00  0.00    +0.000 C 
ENDBRANCH  20  28
ENDBRANCH  14  20
ENDBRANCH   6  15
BRANCH   5  30
ATOM     30  O   UNL     1       4.951  -1.061   0.000  0.00  0.00    +0.000 OA
BRANCH  30  39
ATOM     31  O   UNL     1       3.522  -1.061   0.000  0.00  0.00    +0.000 OA
ATOM     32  O   UNL     1       3.522  -3.536   0.000  0.00  0.00    +0.000 OA
ATOM     33  O   UNL     1       2.093  -2.711   0.000  0.00  0.00    +0.000 OA
ATOM     34  O   UNL     1       4.951  -2.711   0.000  0.00  0.00    +0.000 OA
ATOM     35  C   UNL     1       3.522  -2.711   0.000  0.00  0.00    +0.000 C 
ATOM     36  C   UNL     1       2.808  -2.298   0.000  0.00  0.00    +0.000 C 
ATOM     37  C   UNL     1       4.236  -2.298   0.000  0.00  0.00    +0.000 C 
ATOM     38  C   UNL     1       2.808  -1.473   0.000  0.00  0.00    +0.000 C 
ATOM     39  C   UNL     1       4.236  -1.473   0.000  0.00  0.00    +0.000 C 
ATOM     40  C   UNL     1       2.093  -1.061   0.000  0.00  0.00    +0.000 C 
ENDBRANCH  30  39
ENDBRANCH   5  30
TORSDOF 5
