REMARK  Name = 131752789
REMARK  8 active torsions:
REMARK  status: ('A' for Active; 'I' for Inactive)
REMARK    1  A    between atoms: O_1  and  C_19
REMARK    2  A    between atoms: O_1  and  C_24
REMARK    3  A    between atoms: O_4  and  C_27
REMARK    4  A    between atoms: O_4  and  C_30
REMARK    5  A    between atoms: O_6  and  C_23
REMARK    6  A    between atoms: O_6  and  C_37
REMARK    7  A    between atoms: C_22  and  C_27
REMARK    8  A    between atoms: C_38  and  C_41
REMARK                            x       y       z     vdW  Elec       q    Type
REMARK                         _______ _______ _______ _____ _____    ______ ____
ROOT
ATOM      1  O   UNL     1       7.094   0.718   0.000  0.00  0.00    +0.000 OA
ATOM      2  O   UNL     1       7.094  -1.757   0.000  0.00  0.00    +0.000 OA
ATOM      3  O   UNL     1       5.665  -0.932   0.000  0.00  0.00    +0.000 OA
ATOM      4  C   UNL     1       7.809  -0.519   0.000  0.00  0.00    +0.000 C 
ATOM      5  C   UNL     1       7.094  -0.932   0.000  0.00  0.00    +0.000 C 
ATOM      6  C   UNL     1       6.380  -0.519   0.000  0.00  0.00    +0.000 C 
ATOM      7  C   UNL     1       6.380   0.306   0.000  0.00  0.00    +0.000 C 
ATOM      8  C   UNL     1       7.809   0.306   0.000  0.00  0.00    +0.000 C 
ENDROOT
BRANCH   4   9
ATOM      9  O   UNL     1       8.523  -0.932   0.000  0.00  0.00    +0.000 OA
BRANCH   9  14
ATOM     10  O   UNL     1       7.809  -2.169   0.000  0.00  0.00    +0.000 OA
ATOM     11  O   UNL     1       9.952  -1.757   0.000  0.00  0.00    +0.000 OA
ATOM     12  O   UNL     1       9.952  -3.407   0.000  0.00  0.00    +0.000 OA
ATOM     13  O   UNL     1       8.523  -4.232   0.000  0.00  0.00    +0.000 OA
ATOM     14  C   UNL     1       8.523  -1.757   0.000  0.00  0.00    +0.000 C 
ATOM     15  C   UNL     1       9.238  -2.169   0.000  0.00  0.00    +0.000 C 
ATOM     16  C   UNL     1       9.238  -2.994   0.000  0.00  0.00    +0.000 C 
ATOM     17  C   UNL     1       8.523  -3.407   0.000  0.00  0.00    +0.000 C 
ATOM     18  C   UNL     1       7.809  -2.994   0.000  0.00  0.00    +0.000 C 
ATOM     19  C   UNL     1       7.094  -3.407   0.000  0.00  0.00    +0.000 C 
ENDBRANCH   9  14
ENDBRANCH   4   9
BRANCH   8  20
ATOM     20  O   UNL     1       8.523   0.718   0.000  0.00  0.00    +0.000 OA
BRANCH  20  23
ATOM     21  O   UNL     1       9.238   2.781   0.000  0.00  0.00    +0.000 OA
ATOM     22  O   UNL     1       7.094   1.543   0.000  0.00  0.00    +0.000 OA
ATOM     23  C   UNL     1       8.523   1.543   0.000  0.00  0.00    +0.000 A 
ATOM     24  C   UNL     1       9.238   1.956   0.000  0.00  0.00    +0.000 A 
ATOM     25  C   UNL     1       7.809   1.956   0.000  0.00  0.00    +0.000 A 
ATOM     26  C   UNL     1       7.809   2.781   0.000  0.00  0.00    +0.000 A 
ATOM     27  C   UNL     1       8.523   3.193   0.000  0.00  0.00    +0.000 A 
ATOM     28  C   UNL     1       7.058   3.199   0.000  0.00  0.00    +0.000 A 
ATOM     29  C   UNL     1       8.536   4.052   0.000  0.00  0.00    +0.000 A 
ATOM     30  C   UNL     1       7.051   4.058   0.000  0.00  0.00    +0.000 A 
ATOM     31  C   UNL     1       7.796   4.488   0.000  0.00  0.00    +0.000 A 
BRANCH  24  34
ATOM     32  O   UNL     1      12.096   1.956   0.000  0.00  0.00    +0.000 OA
ATOM     33  O   UNL     1      12.096   0.306   0.000  0.00  0.00    +0.000 OA
ATOM     34  C   UNL     1       9.952   1.543   0.000  0.00  0.00    +0.000 A 
ATOM     35  C   UNL     1      10.667   1.956   0.000  0.00  0.00    +0.000 A 
ATOM     36  C   UNL     1       9.952   0.718   0.000  0.00  0.00    +0.000 A 
ATOM     37  C   UNL     1      11.381   1.543   0.000  0.00  0.00    +0.000 A 
ATOM     38  C   UNL     1      10.667   0.306   0.000  0.00  0.00    +0.000 A 
ATOM     39  C   UNL     1      11.381   0.718   0.000  0.00  0.00    +0.000 A 
ENDBRANCH  24  34
ENDBRANCH  20  23
ENDBRANCH   8  20
BRANCH   7  40
ATOM     40  C   UNL     1       5.665   0.718   0.000  0.00  0.00    +0.000 C 
BRANCH  40  41
ATOM     41  O   UNL     1       4.951   0.306   0.000  0.00  0.00    +0.000 OA
BRANCH  41  46
ATOM     42  O   UNL     1       3.522   0.306   0.000  0.00  0.00    +0.000 OA
ATOM     43  O   UNL     1       4.951   1.956   0.000  0.00  0.00    +0.000 OA
ATOM     44  O   UNL     1       3.522   2.781   0.000  0.00  0.00    +0.000 OA
ATOM     45  O   UNL     1       2.093   1.956   0.000  0.00  0.00    +0.000 OA
ATOM     46  C   UNL     1       4.236   0.718   0.000  0.00  0.00    +0.000 C 
ATOM     47  C   UNL     1       4.236   1.543   0.000  0.00  0.00    +0.000 C 
ATOM     48  C   UNL     1       3.522   1.956   0.000  0.00  0.00    +0.000 C 
ATOM     49  C   UNL     1       2.808   1.543   0.000  0.00  0.00    +0.000 C 
ATOM     50  C   UNL     1       2.808   0.718   0.000  0.00  0.00    +0.000 C 
ATOM     51  C   UNL     1       2.093   0.306   0.000  0.00  0.00    +0.000 C 
ENDBRANCH  41  46
ENDBRANCH  40  41
ENDBRANCH   7  40
TORSDOF 8
