REMARK  Name = 74978527
REMARK  5 active torsions:
REMARK  status: ('A' for Active; 'I' for Inactive)
REMARK    1  A    between atoms: O_2  and  C_17
REMARK    2  A    between atoms: O_2  and  C_19
REMARK    3  A    between atoms: O_11  and  C_27
REMARK    4  A    between atoms: C_16  and  C_18
REMARK    5  A    between atoms: C_20  and  C_24
REMARK                            x       y       z     vdW  Elec       q    Type
REMARK                         _______ _______ _______ _____ _____    ______ ____
ROOT
ATOM      1  O   UNL     1       6.380   0.923   0.000  0.00  0.00    +0.000 OA
ATOM      2  O   UNL     1       4.236  -0.315   0.000  0.00  0.00    +0.000 OA
ATOM      3  O   UNL     1       3.490   0.920   0.000  0.00  0.00    +0.000 OA
ATOM      4  O   UNL     1       6.398   2.599   0.000  0.00  0.00    +0.000 OA
ATOM      5  C   UNL     1       5.665  -0.315   0.000  0.00  0.00    +0.000 A 
ATOM      6  C   UNL     1       6.380   0.098   0.000  0.00  0.00    +0.000 A 
ATOM      7  C   UNL     1       4.951   0.098   0.000  0.00  0.00    +0.000 A 
ATOM      8  C   UNL     1       4.951   0.923   0.000  0.00  0.00    +0.000 A 
ATOM      9  C   UNL     1       5.665   1.335   0.000  0.00  0.00    +0.000 A 
ATOM     10  C   UNL     1       4.200   1.341   0.000  0.00  0.00    +0.000 A 
ATOM     11  C   UNL     1       5.679   2.195   0.000  0.00  0.00    +0.000 A 
ATOM     12  C   UNL     1       4.938   2.630   0.000  0.00  0.00    +0.000 A 
ATOM     13  C   UNL     1       4.194   2.200   0.000  0.00  0.00    +0.000 A 
ENDROOT
BRANCH   6  15
ATOM     14  O   UNL     1       9.238  -1.552   0.000  0.00  0.00    +0.000 OA
ATOM     15  C   UNL     1       7.094  -0.315   0.000  0.00  0.00    +0.000 A 
ATOM     16  C   UNL     1       7.094  -1.140   0.000  0.00  0.00    +0.000 A 
ATOM     17  C   UNL     1       7.809   0.098   0.000  0.00  0.00    +0.000 A 
ATOM     18  C   UNL     1       7.809  -1.552   0.000  0.00  0.00    +0.000 A 
ATOM     19  C   UNL     1       8.523  -0.315   0.000  0.00  0.00    +0.000 A 
ATOM     20  C   UNL     1       8.523  -1.140   0.000  0.00  0.00    +0.000 A 
ENDBRANCH   6  15
BRANCH  12  21
ATOM     21  O   UNL     1       4.941   3.455   0.000  0.00  0.00    +0.000 OA
ATOM     22  C   UNL     1       4.228   3.870   0.000  0.00  0.00    +0.000 C 
ENDBRANCH  12  21
BRANCH   5  23
ATOM     23  O   UNL     1       5.665  -1.140   0.000  0.00  0.00    +0.000 OA
BRANCH  23  32
ATOM     24  O   UNL     1       4.236  -1.140   0.000  0.00  0.00    +0.000 OA
ATOM     25  O   UNL     1       4.236  -3.615   0.000  0.00  0.00    +0.000 OA
ATOM     26  O   UNL     1       2.808  -2.790   0.000  0.00  0.00    +0.000 OA
ATOM     27  O   UNL     1       5.665  -2.790   0.000  0.00  0.00    +0.000 OA
ATOM     28  C   UNL     1       4.236  -2.790   0.000  0.00  0.00    +0.000 C 
ATOM     29  C   UNL     1       3.522  -2.377   0.000  0.00  0.00    +0.000 C 
ATOM     30  C   UNL     1       4.951  -2.377   0.000  0.00  0.00    +0.000 C 
ATOM     31  C   UNL     1       3.522  -1.552   0.000  0.00  0.00    +0.000 C 
ATOM     32  C   UNL     1       4.951  -1.552   0.000  0.00  0.00    +0.000 C 
BRANCH  31  34
ATOM     33  O   UNL     1       2.093  -1.552   0.000  0.00  0.00    +0.000 OA
ATOM     34  C   UNL     1       2.808  -1.140   0.000  0.00  0.00    +0.000 C 
ENDBRANCH  31  34
ENDBRANCH  23  32
ENDBRANCH   5  23
TORSDOF 5
