REMARK  Name = 73840313
REMARK  7 active torsions:
REMARK  status: ('A' for Active; 'I' for Inactive)
REMARK    1  A    between atoms: O_1  and  C_16
REMARK    2  A    between atoms: O_1  and  C_19
REMARK    3  A    between atoms: O_7  and  C_25
REMARK    4  A    between atoms: O_7  and  C_28
REMARK    5  A    between atoms: C_18  and  C_26
REMARK    6  A    between atoms: C_24  and  C_27
REMARK    7  A    between atoms: C_35  and  C_37
REMARK                            x       y       z     vdW  Elec       q    Type
REMARK                         _______ _______ _______ _____ _____    ______ ____
ROOT
ATOM      1  O   UNL     1       4.951  -1.467   0.000  0.00  0.00    +0.000 OA
ATOM      2  O   UNL     1       7.094  -2.705   0.000  0.00  0.00    +0.000 OA
ATOM      3  O   UNL     1       7.094  -1.055   0.000  0.00  0.00    +0.000 OA
ATOM      4  C   UNL     1       5.665  -2.705   0.000  0.00  0.00    +0.000 C 
ATOM      5  C   UNL     1       6.380  -2.292   0.000  0.00  0.00    +0.000 C 
ATOM      6  C   UNL     1       4.951  -2.292   0.000  0.00  0.00    +0.000 C 
ATOM      7  C   UNL     1       6.380  -1.467   0.000  0.00  0.00    +0.000 C 
ATOM      8  C   UNL     1       5.665  -1.055   0.000  0.00  0.00    +0.000 C 
ENDROOT
BRANCH   6  10
ATOM      9  O   UNL     1       3.522  -2.292   0.000  0.00  0.00    +0.000 OA
ATOM     10  C   UNL     1       4.236  -2.705   0.000  0.00  0.00    +0.000 C 
ENDBRANCH   6  10
BRANCH   4  11
ATOM     11  O   UNL     1       5.665  -3.530   0.000  0.00  0.00    +0.000 OA
BRANCH  11  16
ATOM     12  O   UNL     1       4.236  -3.530   0.000  0.00  0.00    +0.000 OA
ATOM     13  O   UNL     1       5.665  -5.180   0.000  0.00  0.00    +0.000 OA
ATOM     14  O   UNL     1       4.236  -6.005   0.000  0.00  0.00    +0.000 OA
ATOM     15  O   UNL     1       2.808  -5.180   0.000  0.00  0.00    +0.000 OA
ATOM     16  C   UNL     1       4.951  -3.942   0.000  0.00  0.00    +0.000 C 
ATOM     17  C   UNL     1       4.951  -4.767   0.000  0.00  0.00    +0.000 C 
ATOM     18  C   UNL     1       4.236  -5.180   0.000  0.00  0.00    +0.000 C 
ATOM     19  C   UNL     1       3.522  -4.767   0.000  0.00  0.00    +0.000 C 
ATOM     20  C   UNL     1       3.522  -3.942   0.000  0.00  0.00    +0.000 C 
BRANCH  20  22
ATOM     21  O   UNL     1       2.093  -3.942   0.000  0.00  0.00    +0.000 OA
ATOM     22  C   UNL     1       2.808  -3.530   0.000  0.00  0.00    +0.000 C 
ENDBRANCH  20  22
ENDBRANCH  11  16
ENDBRANCH   4  11
BRANCH   8  23
ATOM     23  O   UNL     1       5.665  -0.230   0.000  0.00  0.00    +0.000 OA
BRANCH  23  27
ATOM     24  O   UNL     1       4.202   2.288   0.000  0.00  0.00    +0.000 OA
ATOM     25  O   UNL     1       2.745  -0.207   0.000  0.00  0.00    +0.000 OA
ATOM     26  O   UNL     1       2.053   1.059   0.000  0.00  0.00    +0.000 OA
ATOM     27  C   UNL     1       4.951   0.183   0.000  0.00  0.00    +0.000 A 
ATOM     28  C   UNL     1       4.947   1.042   0.000  0.00  0.00    +0.000 A 
ATOM     29  C   UNL     1       4.205  -0.244   0.000  0.00  0.00    +0.000 A 
ATOM     30  C   UNL     1       4.198   1.463   0.000  0.00  0.00    +0.000 A 
ATOM     31  C   UNL     1       3.466   0.194   0.000  0.00  0.00    +0.000 A 
ATOM     32  C   UNL     1       3.482   1.053   0.000  0.00  0.00    +0.000 A 
ATOM     33  C   UNL     1       2.769   1.468   0.000  0.00  0.00    +0.000 A 
ATOM     34  C   UNL     1       3.489   2.703   0.000  0.00  0.00    +0.000 A 
ATOM     35  C   UNL     1       2.773   2.293   0.000  0.00  0.00    +0.000 A 
BRANCH  34  37
ATOM     36  O   UNL     1       3.502   6.003   0.000  0.00  0.00    +0.000 OA
ATOM     37  C   UNL     1       3.492   3.528   0.000  0.00  0.00    +0.000 A 
ATOM     38  C   UNL     1       2.779   3.943   0.000  0.00  0.00    +0.000 A 
ATOM     39  C   UNL     1       4.208   3.938   0.000  0.00  0.00    +0.000 A 
ATOM     40  C   UNL     1       2.782   4.769   0.000  0.00  0.00    +0.000 A 
ATOM     41  C   UNL     1       4.211   4.763   0.000  0.00  0.00    +0.000 A 
ATOM     42  C   UNL     1       3.498   5.178   0.000  0.00  0.00    +0.000 A 
ENDBRANCH  34  37
ENDBRANCH  23  27
ENDBRANCH   8  23
TORSDOF 7
