REMARK  Name = 131833108
REMARK  5 active torsions:
REMARK  status: ('A' for Active; 'I' for Inactive)
REMARK    1  A    between atoms: S_1  and  O_7
REMARK    2  A    between atoms: O_7  and  C_28
REMARK    3  A    between atoms: C_17  and  C_22
REMARK    4  A    between atoms: C_21  and  C_28
REMARK    5  A    between atoms: C_26  and  C_32
REMARK                            x       y       z     vdW  Elec       q    Type
REMARK                         _______ _______ _______ _____ _____    ______ ____
ROOT
ATOM      1  O   UNL     1       4.974   0.924   0.000  0.00  0.00    +0.000 OA
ATOM      2  O   UNL     1       6.434   2.623   0.000  0.00  0.00    +0.000 OA
ATOM      3  O   UNL     1       2.093   0.953   0.000  0.00  0.00    +0.000 OA
ATOM      4  O   UNL     1       3.522   3.428   0.000  0.00  0.00    +0.000 OA
ATOM      5  C   UNL     1       3.522   0.953   0.000  0.00  0.00    +0.000 A 
ATOM      6  C   UNL     1       4.236   1.365   0.000  0.00  0.00    +0.000 A 
ATOM      7  C   UNL     1       4.236   2.190   0.000  0.00  0.00    +0.000 A 
ATOM      8  C   UNL     1       5.721   2.208   0.000  0.00  0.00    +0.000 C 
ATOM      9  C   UNL     1       5.721   1.348   0.000  0.00  0.00    +0.000 C 
ATOM     10  C   UNL     1       4.974   2.631   0.000  0.00  0.00    +0.000 C 
ATOM     11  C   UNL     1       2.808   1.365   0.000  0.00  0.00    +0.000 A 
ATOM     12  C   UNL     1       3.522   2.603   0.000  0.00  0.00    +0.000 A 
ATOM     13  C   UNL     1       2.808   2.190   0.000  0.00  0.00    +0.000 A 
ENDROOT
BRANCH   5  18
ATOM     14  O   UNL     1       4.236  -0.285   0.000  0.00  0.00    +0.000 OA
ATOM     15  O   UNL     1       2.093   0.128   0.000  0.00  0.00    +0.000 OA
ATOM     16  O   UNL     1       2.093  -1.522   0.000  0.00  0.00    +0.000 OA
ATOM     17  O   UNL     1       3.522  -2.347   0.000  0.00  0.00    +0.000 OA
ATOM     18  C   UNL     1       3.522   0.128   0.000  0.00  0.00    +0.000 C 
ATOM     19  C   UNL     1       2.808  -0.285   0.000  0.00  0.00    +0.000 C 
ATOM     20  C   UNL     1       2.808  -1.110   0.000  0.00  0.00    +0.000 C 
ATOM     21  C   UNL     1       3.522  -1.522   0.000  0.00  0.00    +0.000 C 
ATOM     22  C   UNL     1       4.236  -1.110   0.000  0.00  0.00    +0.000 C 
BRANCH  22  23
ATOM     23  C   UNL     1       4.951  -1.522   0.000  0.00  0.00    +0.000 C 
BRANCH  23  24
ATOM     24  O   UNL     1       4.951  -2.347   0.000  0.00  0.00    +0.000 OA
BRANCH  24  25
ATOM     25  S   UNL     1       5.665  -2.760   0.000  0.00  0.00    +0.000 S 
ATOM     26  O   UNL     1       6.380  -3.172   0.000  0.00  0.00    +0.000 OA
ATOM     27  O   UNL     1       5.253  -3.474   0.000  0.00  0.00    +0.000 OA
ATOM     28  O   UNL     1       6.078  -2.045   0.000  0.00  0.00    +0.000 OA
ENDBRANCH  24  25
ENDBRANCH  23  24
ENDBRANCH  22  23
ENDBRANCH   5  18
BRANCH   9  32
ATOM     29  O   UNL     1       5.715  -0.302   0.000  0.00  0.00    +0.000 OA
ATOM     30  O   UNL     1       8.579   1.337   0.000  0.00  0.00    +0.000 OA
ATOM     31  O   UNL     1       8.573  -0.313   0.000  0.00  0.00    +0.000 OA
ATOM     32  C   UNL     1       6.434   0.933   0.000  0.00  0.00    +0.000 A 
ATOM     33  C   UNL     1       6.431   0.108   0.000  0.00  0.00    +0.000 A 
ATOM     34  C   UNL     1       7.150   1.343   0.000  0.00  0.00    +0.000 A 
ATOM     35  C   UNL     1       7.863   0.927   0.000  0.00  0.00    +0.000 A 
ATOM     36  C   UNL     1       7.144  -0.307   0.000  0.00  0.00    +0.000 A 
ATOM     37  C   UNL     1       7.860   0.102   0.000  0.00  0.00    +0.000 A 
ENDBRANCH   9  32
TORSDOF 5
