REMARK  Name = 131750822
REMARK  14 active torsions:
REMARK  status: ('A' for Active; 'I' for Inactive)
REMARK    1  A    between atoms: O_2  and  C_24
REMARK    2  A    between atoms: O_2  and  C_35
REMARK    3  A    between atoms: O_3  and  C_29
REMARK    4  A    between atoms: O_3  and  C_31
REMARK    5  A    between atoms: O_8  and  C_28
REMARK    6  A    between atoms: O_8  and  C_41
REMARK    7  A    between atoms: O_15  and  C_40
REMARK    8  A    between atoms: O_15  and  C_47
REMARK    9  A    between atoms: C_27  and  C_29
REMARK   10  A    between atoms: C_30  and  C_35
REMARK   11  A    between atoms: C_37  and  C_40
REMARK   12  A    between atoms: C_42  and  C_45
REMARK   13  A    between atoms: C_47  and  C_52
REMARK   14  A    between atoms: C_58  and  C_59
REMARK                            x       y       z     vdW  Elec       q    Type
REMARK                         _______ _______ _______ _____ _____    ______ ____
ROOT
ATOM      1  O   UNL     1       9.952   0.797   0.000  0.00  0.00    +0.000 OA
ATOM      2  O   UNL     1       9.952  -1.678   0.000  0.00  0.00    +0.000 OA
ATOM      3  O   UNL     1       8.523  -0.853   0.000  0.00  0.00    +0.000 OA
ATOM      4  C   UNL     1      10.667  -0.440   0.000  0.00  0.00    +0.000 C 
ATOM      5  C   UNL     1       9.952  -0.853   0.000  0.00  0.00    +0.000 C 
ATOM      6  C   UNL     1       9.238  -0.440   0.000  0.00  0.00    +0.000 C 
ATOM      7  C   UNL     1       9.238   0.385   0.000  0.00  0.00    +0.000 C 
ATOM      8  C   UNL     1      10.667   0.385   0.000  0.00  0.00    +0.000 C 
ENDROOT
BRANCH   4   9
ATOM      9  O   UNL     1      11.381  -0.853   0.000  0.00  0.00    +0.000 OA
BRANCH   9  10
ATOM     10  C   UNL     1      11.381  -1.678   0.000  0.00  0.00    +0.000 C 
BRANCH  10  15
ATOM     11  O   UNL     1      12.849  -1.755   0.000  0.00  0.00    +0.000 OA
ATOM     12  O   UNL     1      11.569  -3.463   0.000  0.00  0.00    +0.000 OA
ATOM     13  O   UNL     1      13.324  -3.836   0.000  0.00  0.00    +0.000 OA
ATOM     14  O   UNL     1      14.222  -2.281   0.000  0.00  0.00    +0.000 OA
ATOM     15  C   UNL     1      12.096  -2.090   0.000  0.00  0.00    +0.000 C 
ATOM     16  C   UNL     1      12.182  -2.911   0.000  0.00  0.00    +0.000 C 
ATOM     17  C   UNL     1      12.989  -3.082   0.000  0.00  0.00    +0.000 C 
ATOM     18  C   UNL     1      13.401  -2.368   0.000  0.00  0.00    +0.000 C 
ENDBRANCH  10  15
ENDBRANCH   9  10
ENDBRANCH   4   9
BRANCH   8  19
ATOM     19  O   UNL     1      11.381   0.797   0.000  0.00  0.00    +0.000 OA
BRANCH  19  23
ATOM     20  O   UNL     1      12.096   2.860   0.000  0.00  0.00    +0.000 OA
ATOM     21  O   UNL     1       9.206   2.857   0.000  0.00  0.00    +0.000 OA
ATOM     22  O   UNL     1      10.657   5.392   0.000  0.00  0.00    +0.000 OA
ATOM     23  C   UNL     1      11.381   1.622   0.000  0.00  0.00    +0.000 A 
ATOM     24  C   UNL     1      12.096   2.035   0.000  0.00  0.00    +0.000 A 
ATOM     25  C   UNL     1      10.667   2.035   0.000  0.00  0.00    +0.000 A 
ATOM     26  C   UNL     1      10.667   2.860   0.000  0.00  0.00    +0.000 A 
ATOM     27  C   UNL     1      11.381   3.272   0.000  0.00  0.00    +0.000 A 
ATOM     28  C   UNL     1       9.916   3.278   0.000  0.00  0.00    +0.000 A 
ATOM     29  C   UNL     1      11.394   4.131   0.000  0.00  0.00    +0.000 A 
ATOM     30  C   UNL     1       9.909   4.137   0.000  0.00  0.00    +0.000 A 
ATOM     31  C   UNL     1      10.653   4.567   0.000  0.00  0.00    +0.000 A 
BRANCH  24  34
ATOM     32  O   UNL     1      13.524  -0.440   0.000  0.00  0.00    +0.000 OA
ATOM     33  O   UNL     1      14.954   0.385   0.000  0.00  0.00    +0.000 OA
ATOM     34  C   UNL     1      12.810   1.622   0.000  0.00  0.00    +0.000 A 
ATOM     35  C   UNL     1      12.810   0.797   0.000  0.00  0.00    +0.000 A 
ATOM     36  C   UNL     1      13.524   2.035   0.000  0.00  0.00    +0.000 A 
ATOM     37  C   UNL     1      13.524   0.385   0.000  0.00  0.00    +0.000 A 
ATOM     38  C   UNL     1      14.239   1.622   0.000  0.00  0.00    +0.000 A 
ATOM     39  C   UNL     1      14.239   0.797   0.000  0.00  0.00    +0.000 A 
ENDBRANCH  24  34
ENDBRANCH  19  23
ENDBRANCH   8  19
BRANCH   7  40
ATOM     40  C   UNL     1       8.523   0.797   0.000  0.00  0.00    +0.000 C 
BRANCH  40  41
ATOM     41  O   UNL     1       7.809   0.385   0.000  0.00  0.00    +0.000 OA
BRANCH  41  46
ATOM     42  O   UNL     1       6.380   0.385   0.000  0.00  0.00    +0.000 OA
ATOM     43  O   UNL     1       7.809   2.035   0.000  0.00  0.00    +0.000 OA
ATOM     44  O   UNL     1       6.380   2.860   0.000  0.00  0.00    +0.000 OA
ATOM     45  O   UNL     1       4.951   2.035   0.000  0.00  0.00    +0.000 OA
ATOM     46  C   UNL     1       7.094   0.797   0.000  0.00  0.00    +0.000 C 
ATOM     47  C   UNL     1       7.094   1.622   0.000  0.00  0.00    +0.000 C 
ATOM     48  C   UNL     1       6.380   2.035   0.000  0.00  0.00    +0.000 C 
ATOM     49  C   UNL     1       5.665   1.622   0.000  0.00  0.00    +0.000 C 
ATOM     50  C   UNL     1       5.665   0.797   0.000  0.00  0.00    +0.000 C 
BRANCH  50  51
ATOM     51  C   UNL     1       4.951   0.385   0.000  0.00  0.00    +0.000 C 
BRANCH  51  52
ATOM     52  O   UNL     1       4.951  -0.440   0.000  0.00  0.00    +0.000 OA
BRANCH  52  54
ATOM     53  O   UNL     1       3.522  -0.440   0.000  0.00  0.00    +0.000 OA
ATOM     54  C   UNL     1       4.236  -0.853   0.000  0.00  0.00    +0.000 C 
BRANCH  54  55
ATOM     55  C   UNL     1       4.236  -1.678   0.000  0.00  0.00    +0.000 C 
ATOM     56  C   UNL     1       3.522  -2.090   0.000  0.00  0.00    +0.000 C 
BRANCH  56  59
ATOM     57  O   UNL     1       2.093  -4.565   0.000  0.00  0.00    +0.000 OA
ATOM     58  O   UNL     1       3.522  -5.390   0.000  0.00  0.00    +0.000 OA
ATOM     59  C   UNL     1       3.522  -2.915   0.000  0.00  0.00    +0.000 A 
ATOM     60  C   UNL     1       2.808  -3.328   0.000  0.00  0.00    +0.000 A 
ATOM     61  C   UNL     1       4.236  -3.328   0.000  0.00  0.00    +0.000 A 
ATOM     62  C   UNL     1       2.808  -4.153   0.000  0.00  0.00    +0.000 A 
ATOM     63  C   UNL     1       4.236  -4.153   0.000  0.00  0.00    +0.000 A 
ATOM     64  C   UNL     1       3.522  -4.565   0.000  0.00  0.00    +0.000 A 
ENDBRANCH  56  59
ENDBRANCH  54  55
ENDBRANCH  52  54
ENDBRANCH  51  52
ENDBRANCH  50  51
ENDBRANCH  41  46
ENDBRANCH  40  41
ENDBRANCH   7  40
TORSDOF 14
