REMARK  Name = 131752225
REMARK  8 active torsions:
REMARK  status: ('A' for Active; 'I' for Inactive)
REMARK    1  A    between atoms: O_2  and  C_21
REMARK    2  A    between atoms: O_2  and  C_25
REMARK    3  A    between atoms: O_8  and  C_26
REMARK    4  A    between atoms: O_8  and  C_29
REMARK    5  A    between atoms: O_15  and  C_41
REMARK    6  A    between atoms: C_17  and  C_27
REMARK    7  A    between atoms: C_20  and  C_25
REMARK    8  A    between atoms: C_30  and  C_33
REMARK                            x       y       z     vdW  Elec       q    Type
REMARK                         _______ _______ _______ _____ _____    ______ ____
ROOT
ATOM      1  O   UNL     1       8.271  -1.061   0.000  0.00  0.00    +0.000 OA
ENDROOT
BRANCH   1   6
ATOM      2  O   UNL     1       8.986   1.002   0.000  0.00  0.00    +0.000 OA
ATOM      3  O   UNL     1       6.842  -0.236   0.000  0.00  0.00    +0.000 OA
ATOM      4  O   UNL     1       6.096   0.999   0.000  0.00  0.00    +0.000 OA
ATOM      5  O   UNL     1       7.547   3.534   0.000  0.00  0.00    +0.000 OA
ATOM      6  C   UNL     1       8.271  -0.236   0.000  0.00  0.00    +0.000 A 
ATOM      7  C   UNL     1       8.986   0.177   0.000  0.00  0.00    +0.000 A 
ATOM      8  C   UNL     1       7.557   0.177   0.000  0.00  0.00    +0.000 A 
ATOM      9  C   UNL     1       7.557   1.002   0.000  0.00  0.00    +0.000 A 
ATOM     10  C   UNL     1       8.271   1.414   0.000  0.00  0.00    +0.000 A 
ATOM     11  C   UNL     1       6.806   1.420   0.000  0.00  0.00    +0.000 A 
ATOM     12  C   UNL     1       8.284   2.273   0.000  0.00  0.00    +0.000 A 
ATOM     13  C   UNL     1       6.799   2.279   0.000  0.00  0.00    +0.000 A 
ATOM     14  C   UNL     1       7.543   2.709   0.000  0.00  0.00    +0.000 A 
BRANCH   7  16
ATOM     15  O   UNL     1      11.844  -1.473   0.000  0.00  0.00    +0.000 OA
ATOM     16  C   UNL     1       9.700  -0.236   0.000  0.00  0.00    +0.000 A 
ATOM     17  C   UNL     1       9.700  -1.061   0.000  0.00  0.00    +0.000 A 
ATOM     18  C   UNL     1      10.415   0.177   0.000  0.00  0.00    +0.000 A 
ATOM     19  C   UNL     1      10.415  -1.473   0.000  0.00  0.00    +0.000 A 
ATOM     20  C   UNL     1      11.129  -0.236   0.000  0.00  0.00    +0.000 A 
ATOM     21  C   UNL     1      11.129  -1.061   0.000  0.00  0.00    +0.000 A 
BRANCH  19  22
ATOM     22  O   UNL     1      10.415  -2.298   0.000  0.00  0.00    +0.000 OA
ATOM     23  C   UNL     1       9.700  -2.711   0.000  0.00  0.00    +0.000 C 
ENDBRANCH  19  22
ENDBRANCH   7  16
ENDBRANCH   1   6
BRANCH   1  32
ATOM     24  O   UNL     1       6.842  -1.061   0.000  0.00  0.00    +0.000 OA
ATOM     25  O   UNL     1       5.413  -2.711   0.000  0.00  0.00    +0.000 OA
ATOM     26  O   UNL     1       6.842  -3.536   0.000  0.00  0.00    +0.000 OA
ATOM     27  O   UNL     1       8.271  -2.711   0.000  0.00  0.00    +0.000 OA
ATOM     28  C   UNL     1       6.128  -1.473   0.000  0.00  0.00    +0.000 C 
ATOM     29  C   UNL     1       6.128  -2.298   0.000  0.00  0.00    +0.000 C 
ATOM     30  C   UNL     1       6.842  -2.711   0.000  0.00  0.00    +0.000 C 
ATOM     31  C   UNL     1       7.557  -2.298   0.000  0.00  0.00    +0.000 C 
ATOM     32  C   UNL     1       7.557  -1.473   0.000  0.00  0.00    +0.000 C 
BRANCH  28  33
ATOM     33  C   UNL     1       5.413  -1.061   0.000  0.00  0.00    +0.000 C 
BRANCH  33  34
ATOM     34  O   UNL     1       4.699  -1.473   0.000  0.00  0.00    +0.000 OA
BRANCH  34  41
ATOM     35  O   UNL     1       3.898  -0.240   0.000  0.00  0.00    +0.000 OA
ATOM     36  O   UNL     1       1.858  -0.869   0.000  0.00  0.00    +0.000 OA
ATOM     37  O   UNL     1       3.059  -2.203   0.000  0.00  0.00    +0.000 OA
ATOM     38  C   UNL     1       3.091  -0.069   0.000  0.00  0.00    +0.000 C 
ATOM     39  C   UNL     1       2.679  -0.783   0.000  0.00  0.00    +0.000 C 
ATOM     40  C   UNL     1       3.231  -1.396   0.000  0.00  0.00    +0.000 C 
ATOM     41  C   UNL     1       3.984  -1.061   0.000  0.00  0.00    +0.000 C 
BRANCH  38  43
ATOM     42  O   UNL     1       1.935   0.771   0.000  0.00  0.00    +0.000 OA
ATOM     43  C   UNL     1       2.756   0.685   0.000  0.00  0.00    +0.000 C 
ATOM     44  C   UNL     1       3.240   1.352   0.000  0.00  0.00    +0.000 C 
ENDBRANCH  38  43
ENDBRANCH  34  41
ENDBRANCH  33  34
ENDBRANCH  28  33
ENDBRANCH   1  32
TORSDOF 8
