REMARK  Name = 44258127
REMARK  6 active torsions:
REMARK  status: ('A' for Active; 'I' for Inactive)
REMARK    1  A    between atoms: O_2  and  C_14
REMARK    2  A    between atoms: O_2  and  C_21
REMARK    3  A    between atoms: O_3  and  C_18
REMARK    4  A    between atoms: O_3  and  C_20
REMARK    5  A    between atoms: C_17  and  C_19
REMARK    6  A    between atoms: C_24  and  C_28
REMARK                            x       y       z     vdW  Elec       q    Type
REMARK                         _______ _______ _______ _____ _____    ______ ____
ROOT
ATOM      1  O   UNL     1       7.843  -0.364   0.000  0.00  0.00    +0.000 OA
ATOM      2  C   UNL     1       6.414  -0.364   0.000  0.00  0.00    +0.000 A 
ATOM      3  C   UNL     1       5.700   0.049   0.000  0.00  0.00    +0.000 A 
ATOM      4  C   UNL     1       7.129   0.049   0.000  0.00  0.00    +0.000 A 
ATOM      5  C   UNL     1       5.700   0.874   0.000  0.00  0.00    +0.000 A 
ATOM      6  C   UNL     1       7.129   0.874   0.000  0.00  0.00    +0.000 A 
ATOM      7  C   UNL     1       6.414   1.286   0.000  0.00  0.00    +0.000 A 
ENDROOT
BRANCH   5  12
ATOM      8  O   UNL     1       4.985   2.111   0.000  0.00  0.00    +0.000 OA
ATOM      9  O   UNL     1       2.842   0.874   0.000  0.00  0.00    +0.000 OA
ATOM     10  O   UNL     1       2.096   2.109   0.000  0.00  0.00    +0.000 OA
ATOM     11  O   UNL     1       3.546   4.644   0.000  0.00  0.00    +0.000 OA
ATOM     12  C   UNL     1       4.985   1.286   0.000  0.00  0.00    +0.000 A 
ATOM     13  C   UNL     1       4.271   0.874   0.000  0.00  0.00    +0.000 A 
ATOM     14  C   UNL     1       4.271   2.524   0.000  0.00  0.00    +0.000 A 
ATOM     15  C   UNL     1       3.556   2.111   0.000  0.00  0.00    +0.000 A 
ATOM     16  C   UNL     1       3.556   1.286   0.000  0.00  0.00    +0.000 A 
ATOM     17  C   UNL     1       2.806   2.530   0.000  0.00  0.00    +0.000 A 
ATOM     18  C   UNL     1       4.284   3.383   0.000  0.00  0.00    +0.000 A 
ATOM     19  C   UNL     1       3.543   3.819   0.000  0.00  0.00    +0.000 A 
ATOM     20  C   UNL     1       2.799   3.389   0.000  0.00  0.00    +0.000 A 
ENDBRANCH   5  12
BRANCH   2  21
ATOM     21  O   UNL     1       6.414  -1.189   0.000  0.00  0.00    +0.000 OA
BRANCH  21  29
ATOM     22  O   UNL     1       4.985  -1.189   0.000  0.00  0.00    +0.000 OA
ATOM     23  O   UNL     1       3.556  -2.839   0.000  0.00  0.00    +0.000 OA
ATOM     24  O   UNL     1       6.414  -2.839   0.000  0.00  0.00    +0.000 OA
ATOM     25  C   UNL     1       4.985  -2.839   0.000  0.00  0.00    +0.000 C 
ATOM     26  C   UNL     1       4.271  -2.426   0.000  0.00  0.00    +0.000 C 
ATOM     27  C   UNL     1       5.700  -2.426   0.000  0.00  0.00    +0.000 C 
ATOM     28  C   UNL     1       4.271  -1.601   0.000  0.00  0.00    +0.000 C 
ATOM     29  C   UNL     1       5.700  -1.601   0.000  0.00  0.00    +0.000 C 
BRANCH  28  32
ATOM     30  O   UNL     1       2.842  -1.601   0.000  0.00  0.00    +0.000 OA
ATOM     31  O   UNL     1       3.556  -0.364   0.000  0.00  0.00    +0.000 OA
ATOM     32  C   UNL     1       3.556  -1.189   0.000  0.00  0.00    +0.000 C 
ENDBRANCH  28  32
BRANCH  25  33
ATOM     33  O   UNL     1       4.985  -3.664   0.000  0.00  0.00    +0.000 OA
BRANCH  33  35
ATOM     34  O   UNL     1       6.414  -3.664   0.000  0.00  0.00    +0.000 OA
ATOM     35  C   UNL     1       5.700  -4.076   0.000  0.00  0.00    +0.000 C 
ATOM     36  C   UNL     1       5.700  -4.901   0.000  0.00  0.00    +0.000 C 
ENDBRANCH  33  35
ENDBRANCH  25  33
ENDBRANCH  21  29
ENDBRANCH   2  21
TORSDOF 6
