REMARK  Name = 74977992
REMARK  6 active torsions:
REMARK  status: ('A' for Active; 'I' for Inactive)
REMARK    1  A    between atoms: O_1  and  C_15
REMARK    2  A    between atoms: O_1  and  C_18
REMARK    3  A    between atoms: O_6  and  C_24
REMARK    4  A    between atoms: O_6  and  C_27
REMARK    5  A    between atoms: C_23  and  C_26
REMARK    6  A    between atoms: C_28  and  C_32
REMARK                            x       y       z     vdW  Elec       q    Type
REMARK                         _______ _______ _______ _____ _____    ______ ____
ROOT
ATOM      1  O   UNL     1       5.721   0.334   0.000  0.00  0.00    +0.000 OA
ATOM      2  O   UNL     1       7.864  -0.903   0.000  0.00  0.00    +0.000 OA
ATOM      3  O   UNL     1       7.864   0.747   0.000  0.00  0.00    +0.000 OA
ATOM      4  C   UNL     1       6.435  -0.903   0.000  0.00  0.00    +0.000 C 
ATOM      5  C   UNL     1       7.150  -0.491   0.000  0.00  0.00    +0.000 C 
ATOM      6  C   UNL     1       5.721  -0.491   0.000  0.00  0.00    +0.000 C 
ATOM      7  C   UNL     1       7.150   0.334   0.000  0.00  0.00    +0.000 C 
ATOM      8  C   UNL     1       6.435   0.747   0.000  0.00  0.00    +0.000 C 
ATOM      9  C   UNL     1       5.006  -0.903   0.000  0.00  0.00    +0.000 C 
ENDROOT
BRANCH   4  10
ATOM     10  O   UNL     1       6.435  -1.728   0.000  0.00  0.00    +0.000 OA
BRANCH  10  15
ATOM     11  O   UNL     1       5.006  -1.728   0.000  0.00  0.00    +0.000 OA
ATOM     12  O   UNL     1       6.435  -3.378   0.000  0.00  0.00    +0.000 OA
ATOM     13  O   UNL     1       5.006  -4.203   0.000  0.00  0.00    +0.000 OA
ATOM     14  O   UNL     1       3.577  -3.378   0.000  0.00  0.00    +0.000 OA
ATOM     15  C   UNL     1       5.721  -2.141   0.000  0.00  0.00    +0.000 C 
ATOM     16  C   UNL     1       5.721  -2.966   0.000  0.00  0.00    +0.000 C 
ATOM     17  C   UNL     1       5.006  -3.378   0.000  0.00  0.00    +0.000 C 
ATOM     18  C   UNL     1       4.292  -2.966   0.000  0.00  0.00    +0.000 C 
ATOM     19  C   UNL     1       4.292  -2.141   0.000  0.00  0.00    +0.000 C 
BRANCH  19  21
ATOM     20  O   UNL     1       2.863  -2.141   0.000  0.00  0.00    +0.000 OA
ATOM     21  C   UNL     1       3.577  -1.728   0.000  0.00  0.00    +0.000 C 
ENDBRANCH  19  21
ENDBRANCH  10  15
ENDBRANCH   4  10
BRANCH   8  22
ATOM     22  O   UNL     1       6.435   1.572   0.000  0.00  0.00    +0.000 OA
BRANCH  22  27
ATOM     23  O   UNL     1       5.006   3.222   0.000  0.00  0.00    +0.000 OA
ATOM     24  O   UNL     1       5.006   0.747   0.000  0.00  0.00    +0.000 OA
ATOM     25  O   UNL     1       3.564   0.718   0.000  0.00  0.00    +0.000 OA
ATOM     26  O   UNL     1       2.094   3.242   0.000  0.00  0.00    +0.000 OA
ATOM     27  C   UNL     1       5.721   1.984   0.000  0.00  0.00    +0.000 A 
ATOM     28  C   UNL     1       5.721   2.809   0.000  0.00  0.00    +0.000 A 
ATOM     29  C   UNL     1       5.006   1.572   0.000  0.00  0.00    +0.000 A 
ATOM     30  C   UNL     1       4.292   1.984   0.000  0.00  0.00    +0.000 A 
ATOM     31  C   UNL     1       4.292   2.809   0.000  0.00  0.00    +0.000 A 
ATOM     32  C   UNL     1       3.554   1.543   0.000  0.00  0.00    +0.000 A 
ATOM     33  C   UNL     1       3.554   3.250   0.000  0.00  0.00    +0.000 A 
ATOM     34  C   UNL     1       2.807   1.967   0.000  0.00  0.00    +0.000 A 
ATOM     35  C   UNL     1       2.807   2.826   0.000  0.00  0.00    +0.000 A 
BRANCH  28  36
ATOM     36  C   UNL     1       6.435   3.222   0.000  0.00  0.00    +0.000 A 
ATOM     37  C   UNL     1       7.150   2.809   0.000  0.00  0.00    +0.000 A 
ATOM     38  C   UNL     1       6.435   4.047   0.000  0.00  0.00    +0.000 A 
ATOM     39  C   UNL     1       7.864   3.222   0.000  0.00  0.00    +0.000 A 
ATOM     40  C   UNL     1       7.150   4.459   0.000  0.00  0.00    +0.000 A 
ATOM     41  C   UNL     1       7.864   4.047   0.000  0.00  0.00    +0.000 A 
ENDBRANCH  28  36
ENDBRANCH  22  27
ENDBRANCH   8  22
TORSDOF 6
