REMARK  Name = 44259177
REMARK  9 active torsions:
REMARK  status: ('A' for Active; 'I' for Inactive)
REMARK    1  A    between atoms: O_2  and  C_28
REMARK    2  A    between atoms: O_2  and  C_32
REMARK    3  A    between atoms: O_5  and  C_30
REMARK    4  A    between atoms: O_5  and  C_40
REMARK    5  A    between atoms: O_12  and  C_38
REMARK    6  A    between atoms: O_12  and  C_45
REMARK    7  A    between atoms: C_23  and  C_32
REMARK    8  A    between atoms: C_39  and  C_43
REMARK    9  A    between atoms: C_41  and  C_50
REMARK                            x       y       z     vdW  Elec       q    Type
REMARK                         _______ _______ _______ _____ _____    ______ ____
ROOT
ATOM      1  O   UNL     1       7.869   2.681   0.000  0.00  0.00    +0.000 OA
ATOM      2  O   UNL     1       7.869   0.206   0.000  0.00  0.00    +0.000 OA
ATOM      3  O   UNL     1       6.426   0.178   0.000  0.00  0.00    +0.000 OA
ATOM      4  C   UNL     1       8.583   1.444   0.000  0.00  0.00    +0.000 A 
ATOM      5  C   UNL     1       8.583   2.269   0.000  0.00  0.00    +0.000 A 
ATOM      6  C   UNL     1       7.869   1.031   0.000  0.00  0.00    +0.000 A 
ATOM      7  C   UNL     1       7.154   1.444   0.000  0.00  0.00    +0.000 A 
ATOM      8  C   UNL     1       5.669   2.286   0.000  0.00  0.00    +0.000 A 
ATOM      9  C   UNL     1       7.154   2.269   0.000  0.00  0.00    +0.000 A 
ATOM     10  C   UNL     1       6.417   2.710   0.000  0.00  0.00    +0.000 A 
ATOM     11  C   UNL     1       6.417   1.003   0.000  0.00  0.00    +0.000 A 
ATOM     12  C   UNL     1       5.669   1.427   0.000  0.00  0.00    +0.000 A 
ENDROOT
BRANCH   5  15
ATOM     13  O   UNL     1      10.012   4.744   0.000  0.00  0.00    +0.000 OA
ATOM     14  O   UNL     1      11.441   3.919   0.000  0.00  0.00    +0.000 OA
ATOM     15  C   UNL     1       9.297   2.681   0.000  0.00  0.00    +0.000 A 
ATOM     16  C   UNL     1       9.297   3.506   0.000  0.00  0.00    +0.000 A 
ATOM     17  C   UNL     1      10.012   2.269   0.000  0.00  0.00    +0.000 A 
ATOM     18  C   UNL     1      10.012   3.919   0.000  0.00  0.00    +0.000 A 
ATOM     19  C   UNL     1      10.726   2.681   0.000  0.00  0.00    +0.000 A 
ATOM     20  C   UNL     1      10.726   3.506   0.000  0.00  0.00    +0.000 A 
ENDBRANCH   5  15
BRANCH   4  21
ATOM     21  O   UNL     1       9.297   1.031   0.000  0.00  0.00    +0.000 OA
BRANCH  21  30
ATOM     22  O   UNL     1       8.583  -0.206   0.000  0.00  0.00    +0.000 OA
ATOM     23  O   UNL     1       9.297  -2.269   0.000  0.00  0.00    +0.000 OA
ATOM     24  O   UNL     1      10.726  -1.444   0.000  0.00  0.00    +0.000 OA
ATOM     25  O   UNL     1      10.726   0.206   0.000  0.00  0.00    +0.000 OA
ATOM     26  C   UNL     1       8.583  -1.031   0.000  0.00  0.00    +0.000 C 
ATOM     27  C   UNL     1       9.297  -1.444   0.000  0.00  0.00    +0.000 C 
ATOM     28  C   UNL     1      10.012  -1.031   0.000  0.00  0.00    +0.000 C 
ATOM     29  C   UNL     1      10.012  -0.206   0.000  0.00  0.00    +0.000 C 
ATOM     30  C   UNL     1       9.297   0.206   0.000  0.00  0.00    +0.000 C 
BRANCH  26  31
ATOM     31  C   UNL     1       7.869  -1.444   0.000  0.00  0.00    +0.000 C 
BRANCH  31  32
ATOM     32  O   UNL     1       7.869  -2.269   0.000  0.00  0.00    +0.000 OA
BRANCH  32  38
ATOM     33  O   UNL     1       6.440  -2.269   0.000  0.00  0.00    +0.000 OA
ATOM     34  O   UNL     1       7.869  -3.919   0.000  0.00  0.00    +0.000 OA
ATOM     35  O   UNL     1       6.440  -4.744   0.000  0.00  0.00    +0.000 OA
ATOM     36  O   UNL     1       5.011  -3.919   0.000  0.00  0.00    +0.000 OA
ATOM     37  C   UNL     1       7.154  -3.506   0.000  0.00  0.00    +0.000 C 
ATOM     38  C   UNL     1       7.154  -2.681   0.000  0.00  0.00    +0.000 C 
ATOM     39  C   UNL     1       6.440  -3.919   0.000  0.00  0.00    +0.000 C 
ATOM     40  C   UNL     1       5.725  -3.506   0.000  0.00  0.00    +0.000 C 
ATOM     41  C   UNL     1       5.725  -2.681   0.000  0.00  0.00    +0.000 C 
ATOM     42  C   UNL     1       5.011  -2.269   0.000  0.00  0.00    +0.000 C 
ENDBRANCH  32  38
ENDBRANCH  31  32
ENDBRANCH  26  31
ENDBRANCH  21  30
ENDBRANCH   4  21
BRANCH   8  43
ATOM     43  O   UNL     1       4.956   2.701   0.000  0.00  0.00    +0.000 OA
BRANCH  43  51
ATOM     44  O   UNL     1       4.237   1.466   0.000  0.00  0.00    +0.000 OA
ATOM     45  O   UNL     1       2.098   2.712   0.000  0.00  0.00    +0.000 OA
ATOM     46  O   UNL     1       3.530   3.532   0.000  0.00  0.00    +0.000 OA
ATOM     47  O   UNL     1       2.092   1.062   0.000  0.00  0.00    +0.000 OA
ATOM     48  C   UNL     1       2.811   2.297   0.000  0.00  0.00    +0.000 C 
ATOM     49  C   UNL     1       3.527   2.707   0.000  0.00  0.00    +0.000 C 
ATOM     50  C   UNL     1       2.808   1.472   0.000  0.00  0.00    +0.000 C 
ATOM     51  C   UNL     1       4.240   2.291   0.000  0.00  0.00    +0.000 C 
ATOM     52  C   UNL     1       3.521   1.057   0.000  0.00  0.00    +0.000 C 
BRANCH  52  55
ATOM     53  O   UNL     1       2.802  -0.178   0.000  0.00  0.00    +0.000 OA
ATOM     54  O   UNL     1       4.231  -0.184   0.000  0.00  0.00    +0.000 OA
ATOM     55  C   UNL     1       3.518   0.232   0.000  0.00  0.00    +0.000 C 
ENDBRANCH  52  55
ENDBRANCH  43  51
ENDBRANCH   8  43
TORSDOF 9
