REMARK  Name = 74978145
REMARK  12 active torsions:
REMARK  status: ('A' for Active; 'I' for Inactive)
REMARK    1  A    between atoms: O_2  and  C_26
REMARK    2  A    between atoms: O_2  and  C_30
REMARK    3  A    between atoms: O_5  and  C_28
REMARK    4  A    between atoms: O_5  and  C_39
REMARK    5  A    between atoms: O_12  and  C_36
REMARK    6  A    between atoms: O_12  and  C_40
REMARK    7  A    between atoms: O_20  and  C_56
REMARK    8  A    between atoms: C_21  and  C_30
REMARK    9  A    between atoms: C_35  and  C_38
REMARK   10  A    between atoms: C_41  and  C_48
REMARK   11  A    between atoms: C_45  and  C_49
REMARK   12  A    between atoms: C_48  and  C_50
REMARK                            x       y       z     vdW  Elec       q    Type
REMARK                         _______ _______ _______ _____ _____    ______ ____
ROOT
ATOM      1  O   UNL     1       7.869   2.580   0.000  0.00  0.00    +0.000 OA
ATOM      2  O   UNL     1       7.869   0.105   0.000  0.00  0.00    +0.000 OA
ATOM      3  O   UNL     1       6.426   0.077   0.000  0.00  0.00    +0.000 OA
ATOM      4  C   UNL     1       8.583   1.343   0.000  0.00  0.00    +0.000 A 
ATOM      5  C   UNL     1       5.669   2.185   0.000  0.00  0.00    +0.000 A 
ATOM      6  C   UNL     1       6.417   2.609   0.000  0.00  0.00    +0.000 A 
ATOM      7  C   UNL     1       7.154   1.343   0.000  0.00  0.00    +0.000 A 
ATOM      8  C   UNL     1       7.154   2.168   0.000  0.00  0.00    +0.000 A 
ATOM      9  C   UNL     1       7.869   0.930   0.000  0.00  0.00    +0.000 A 
ATOM     10  C   UNL     1       8.583   2.168   0.000  0.00  0.00    +0.000 A 
ATOM     11  C   UNL     1       5.669   1.326   0.000  0.00  0.00    +0.000 A 
ATOM     12  C   UNL     1       6.417   0.902   0.000  0.00  0.00    +0.000 A 
ENDROOT
BRANCH  10  13
ATOM     13  C   UNL     1       9.297   2.580   0.000  0.00  0.00    +0.000 A 
ATOM     14  C   UNL     1      10.012   2.168   0.000  0.00  0.00    +0.000 A 
ATOM     15  C   UNL     1       9.297   3.405   0.000  0.00  0.00    +0.000 A 
ATOM     16  C   UNL     1      10.726   2.580   0.000  0.00  0.00    +0.000 A 
ATOM     17  C   UNL     1      10.012   3.818   0.000  0.00  0.00    +0.000 A 
ATOM     18  C   UNL     1      10.726   3.405   0.000  0.00  0.00    +0.000 A 
BRANCH  18  19
ATOM     19  O   UNL     1      11.441   3.818   0.000  0.00  0.00    +0.000 OA
ATOM     20  C   UNL     1      12.155   3.405   0.000  0.00  0.00    +0.000 C 
ENDBRANCH  18  19
ENDBRANCH  10  13
BRANCH   4  21
ATOM     21  O   UNL     1       9.297   0.930   0.000  0.00  0.00    +0.000 OA
BRANCH  21  30
ATOM     22  O   UNL     1       8.583  -0.307   0.000  0.00  0.00    +0.000 OA
ATOM     23  O   UNL     1       9.297  -2.370   0.000  0.00  0.00    +0.000 OA
ATOM     24  O   UNL     1      10.726  -1.545   0.000  0.00  0.00    +0.000 OA
ATOM     25  O   UNL     1      10.726   0.105   0.000  0.00  0.00    +0.000 OA
ATOM     26  C   UNL     1       8.583  -1.132   0.000  0.00  0.00    +0.000 C 
ATOM     27  C   UNL     1       9.297  -1.545   0.000  0.00  0.00    +0.000 C 
ATOM     28  C   UNL     1      10.012  -1.132   0.000  0.00  0.00    +0.000 C 
ATOM     29  C   UNL     1      10.012  -0.307   0.000  0.00  0.00    +0.000 C 
ATOM     30  C   UNL     1       9.297   0.105   0.000  0.00  0.00    +0.000 C 
BRANCH  26  31
ATOM     31  C   UNL     1       7.869  -1.545   0.000  0.00  0.00    +0.000 C 
BRANCH  31  32
ATOM     32  O   UNL     1       7.869  -2.370   0.000  0.00  0.00    +0.000 OA
BRANCH  32  38
ATOM     33  O   UNL     1       6.440  -2.370   0.000  0.00  0.00    +0.000 OA
ATOM     34  O   UNL     1       7.869  -4.020   0.000  0.00  0.00    +0.000 OA
ATOM     35  O   UNL     1       6.440  -4.845   0.000  0.00  0.00    +0.000 OA
ATOM     36  O   UNL     1       5.011  -4.020   0.000  0.00  0.00    +0.000 OA
ATOM     37  C   UNL     1       7.154  -3.607   0.000  0.00  0.00    +0.000 C 
ATOM     38  C   UNL     1       7.154  -2.782   0.000  0.00  0.00    +0.000 C 
ATOM     39  C   UNL     1       6.440  -4.020   0.000  0.00  0.00    +0.000 C 
ATOM     40  C   UNL     1       5.725  -3.607   0.000  0.00  0.00    +0.000 C 
ATOM     41  C   UNL     1       5.725  -2.782   0.000  0.00  0.00    +0.000 C 
ATOM     42  C   UNL     1       5.011  -2.370   0.000  0.00  0.00    +0.000 C 
ENDBRANCH  32  38
ENDBRANCH  31  32
ENDBRANCH  26  31
ENDBRANCH  21  30
ENDBRANCH   4  21
BRANCH   5  43
ATOM     43  O   UNL     1       4.956   2.600   0.000  0.00  0.00    +0.000 OA
BRANCH  43  52
ATOM     44  O   UNL     1       3.527   2.606   0.000  0.00  0.00    +0.000 OA
ATOM     45  O   UNL     1       3.518   0.131   0.000  0.00  0.00    +0.000 OA
ATOM     46  O   UNL     1       2.092   0.961   0.000  0.00  0.00    +0.000 OA
ATOM     47  O   UNL     1       4.950   0.950   0.000  0.00  0.00    +0.000 OA
ATOM     48  C   UNL     1       3.521   0.956   0.000  0.00  0.00    +0.000 C 
ATOM     49  C   UNL     1       2.808   1.371   0.000  0.00  0.00    +0.000 C 
ATOM     50  C   UNL     1       4.237   1.365   0.000  0.00  0.00    +0.000 C 
ATOM     51  C   UNL     1       2.811   2.196   0.000  0.00  0.00    +0.000 C 
ATOM     52  C   UNL     1       4.240   2.191   0.000  0.00  0.00    +0.000 C 
BRANCH  51  54
ATOM     53  O   UNL     1       2.102   3.436   0.000  0.00  0.00    +0.000 OA
ATOM     54  C   UNL     1       2.098   2.611   0.000  0.00  0.00    +0.000 C 
ENDBRANCH  51  54
ENDBRANCH  43  52
ENDBRANCH   5  43
BRANCH   6  55
ATOM     55  C   UNL     1       6.426   3.434   0.000  0.00  0.00    +0.000 C 
BRANCH  55  56
ATOM     56  C   UNL     1       5.716   3.855   0.000  0.00  0.00    +0.000 C 
ATOM     57  C   UNL     1       5.726   4.680   0.000  0.00  0.00    +0.000 C 
ATOM     58  C   UNL     1       5.016   5.100   0.000  0.00  0.00    +0.000 C 
ATOM     59  C   UNL     1       6.445   5.084   0.000  0.00  0.00    +0.000 C 
ENDBRANCH  55  56
ENDBRANCH   6  55
TORSDOF 12
