REMARK  Name = 44257917
REMARK  7 active torsions:
REMARK  status: ('A' for Active; 'I' for Inactive)
REMARK    1  A    between atoms: O_2  and  C_14
REMARK    2  A    between atoms: O_2  and  C_26
REMARK    3  A    between atoms: O_5  and  C_20
REMARK    4  A    between atoms: O_5  and  C_29
REMARK    5  A    between atoms: C_16  and  C_19
REMARK    6  A    between atoms: C_18  and  C_20
REMARK    7  A    between atoms: C_31  and  C_32
REMARK                            x       y       z     vdW  Elec       q    Type
REMARK                         _______ _______ _______ _____ _____    ______ ____
ROOT
ATOM      1  O   UNL     1       7.366   1.584   0.000  0.00  0.00    +0.000 OA
ATOM      2  O   UNL     1       5.937  -0.891   0.000  0.00  0.00    +0.000 OA
ATOM      3  O   UNL     1       8.818  -0.920   0.000  0.00  0.00    +0.000 OA
ATOM      4  O   UNL     1       8.808   1.612   0.000  0.00  0.00    +0.000 OA
ATOM      5  C   UNL     1       6.651   0.346   0.000  0.00  0.00    +0.000 A 
ATOM      6  C   UNL     1       7.366   0.759   0.000  0.00  0.00    +0.000 A 
ATOM      7  C   UNL     1       6.651  -0.479   0.000  0.00  0.00    +0.000 A 
ATOM      8  C   UNL     1       8.080   0.346   0.000  0.00  0.00    +0.000 A 
ATOM      9  C   UNL     1       7.366  -0.891   0.000  0.00  0.00    +0.000 A 
ATOM     10  C   UNL     1       8.080  -0.479   0.000  0.00  0.00    +0.000 A 
ATOM     11  C   UNL     1       8.818   0.787   0.000  0.00  0.00    +0.000 A 
ATOM     12  C   UNL     1       9.565   0.363   0.000  0.00  0.00    +0.000 A 
ATOM     13  C   UNL     1       9.565  -0.496   0.000  0.00  0.00    +0.000 A 
ENDROOT
BRANCH   5  19
ATOM     14  O   UNL     1       5.222   0.346   0.000  0.00  0.00    +0.000 OA
ATOM     15  O   UNL     1       5.222   2.821   0.000  0.00  0.00    +0.000 OA
ATOM     16  O   UNL     1       3.793   1.996   0.000  0.00  0.00    +0.000 OA
ATOM     17  C   UNL     1       5.937   1.584   0.000  0.00  0.00    +0.000 C 
ATOM     18  C   UNL     1       5.222   1.996   0.000  0.00  0.00    +0.000 C 
ATOM     19  C   UNL     1       5.937   0.759   0.000  0.00  0.00    +0.000 C 
ATOM     20  C   UNL     1       4.508   1.584   0.000  0.00  0.00    +0.000 C 
ATOM     21  C   UNL     1       4.508   0.759   0.000  0.00  0.00    +0.000 C 
BRANCH  17  22
ATOM     22  O   UNL     1       6.651   1.996   0.000  0.00  0.00    +0.000 OA
BRANCH  22  24
ATOM     23  O   UNL     1       5.937   3.234   0.000  0.00  0.00    +0.000 OA
ATOM     24  C   UNL     1       6.651   2.821   0.000  0.00  0.00    +0.000 C 
ATOM     25  C   UNL     1       7.366   3.234   0.000  0.00  0.00    +0.000 C 
ENDBRANCH  22  24
ENDBRANCH  17  22
BRANCH  21  26
ATOM     26  C   UNL     1       3.793   0.346   0.000  0.00  0.00    +0.000 C 
BRANCH  26  27
ATOM     27  O   UNL     1       3.079   0.759   0.000  0.00  0.00    +0.000 OA
BRANCH  27  29
ATOM     28  O   UNL     1       2.364  -0.479   0.000  0.00  0.00    +0.000 OA
ATOM     29  C   UNL     1       2.364   0.346   0.000  0.00  0.00    +0.000 C 
ATOM     30  C   UNL     1       1.650   0.759   0.000  0.00  0.00    +0.000 C 
ENDBRANCH  27  29
ENDBRANCH  26  27
ENDBRANCH  21  26
ENDBRANCH   5  19
BRANCH  13  33
ATOM     31  O   UNL     1      10.985  -2.976   0.000  0.00  0.00    +0.000 OA
ATOM     32  O   UNL     1      12.417  -2.157   0.000  0.00  0.00    +0.000 OA
ATOM     33  C   UNL     1      10.278  -0.911   0.000  0.00  0.00    +0.000 A 
ATOM     34  C   UNL     1      10.275  -1.736   0.000  0.00  0.00    +0.000 A 
ATOM     35  C   UNL     1      10.994  -0.501   0.000  0.00  0.00    +0.000 A 
ATOM     36  C   UNL     1      10.988  -2.151   0.000  0.00  0.00    +0.000 A 
ATOM     37  C   UNL     1      11.707  -0.917   0.000  0.00  0.00    +0.000 A 
ATOM     38  C   UNL     1      11.704  -1.742   0.000  0.00  0.00    +0.000 A 
ENDBRANCH  13  33
TORSDOF 7
