REMARK  Name = 14353451
REMARK  10 active torsions:
REMARK  status: ('A' for Active; 'I' for Inactive)
REMARK    1  A    between atoms: O_1  and  C_21
REMARK    2  A    between atoms: O_1  and  C_24
REMARK    3  A    between atoms: O_4  and  C_25
REMARK    4  A    between atoms: O_4  and  C_38
REMARK    5  A    between atoms: O_10  and  C_31
REMARK    6  A    between atoms: O_10  and  C_45
REMARK    7  A    between atoms: O_12  and  C_37
REMARK    8  A    between atoms: O_12  and  C_44
REMARK    9  A    between atoms: C_26  and  C_31
REMARK   10  A    between atoms: C_40  and  C_48
REMARK                            x       y       z     vdW  Elec       q    Type
REMARK                         _______ _______ _______ _____ _____    ______ ____
ROOT
ATOM      1  O   UNL     1       7.366   0.999   0.000  0.00  0.00    +0.000 OA
ATOM      2  O   UNL     1       5.222  -0.238   0.000  0.00  0.00    +0.000 OA
ATOM      3  O   UNL     1       4.476   0.997   0.000  0.00  0.00    +0.000 OA
ATOM      4  C   UNL     1       6.651  -0.238   0.000  0.00  0.00    +0.000 A 
ATOM      5  C   UNL     1       7.366   0.174   0.000  0.00  0.00    +0.000 A 
ATOM      6  C   UNL     1       5.937   0.174   0.000  0.00  0.00    +0.000 A 
ATOM      7  C   UNL     1       5.937   0.999   0.000  0.00  0.00    +0.000 A 
ATOM      8  C   UNL     1       6.651   1.412   0.000  0.00  0.00    +0.000 A 
ATOM      9  C   UNL     1       5.924   2.706   0.000  0.00  0.00    +0.000 A 
ATOM     10  C   UNL     1       6.665   2.271   0.000  0.00  0.00    +0.000 A 
ATOM     11  C   UNL     1       5.186   1.417   0.000  0.00  0.00    +0.000 A 
ATOM     12  C   UNL     1       5.179   2.277   0.000  0.00  0.00    +0.000 A 
ENDROOT
BRANCH   5  14
ATOM     13  O   UNL     1      10.224  -1.476   0.000  0.00  0.00    +0.000 OA
ATOM     14  C   UNL     1       8.080  -0.238   0.000  0.00  0.00    +0.000 A 
ATOM     15  C   UNL     1       8.080  -1.063   0.000  0.00  0.00    +0.000 A 
ATOM     16  C   UNL     1       8.795   0.174   0.000  0.00  0.00    +0.000 A 
ATOM     17  C   UNL     1       8.795  -1.476   0.000  0.00  0.00    +0.000 A 
ATOM     18  C   UNL     1       9.509  -0.238   0.000  0.00  0.00    +0.000 A 
ATOM     19  C   UNL     1       9.509  -1.063   0.000  0.00  0.00    +0.000 A 
ENDBRANCH   5  14
BRANCH   4  20
ATOM     20  O   UNL     1       6.651  -1.063   0.000  0.00  0.00    +0.000 OA
BRANCH  20  27
ATOM     21  O   UNL     1       5.222  -1.063   0.000  0.00  0.00    +0.000 OA
ATOM     22  O   UNL     1       5.222  -3.538   0.000  0.00  0.00    +0.000 OA
ATOM     23  O   UNL     1       3.793  -2.713   0.000  0.00  0.00    +0.000 OA
ATOM     24  C   UNL     1       5.937  -2.301   0.000  0.00  0.00    +0.000 C 
ATOM     25  C   UNL     1       5.222  -2.713   0.000  0.00  0.00    +0.000 C 
ATOM     26  C   UNL     1       4.508  -2.301   0.000  0.00  0.00    +0.000 C 
ATOM     27  C   UNL     1       5.937  -1.476   0.000  0.00  0.00    +0.000 C 
ATOM     28  C   UNL     1       4.508  -1.476   0.000  0.00  0.00    +0.000 C 
BRANCH  24  29
ATOM     29  O   UNL     1       6.651  -2.713   0.000  0.00  0.00    +0.000 OA
BRANCH  29  34
ATOM     30  O   UNL     1       5.937  -3.951   0.000  0.00  0.00    +0.000 OA
ATOM     31  O   UNL     1       8.080  -3.538   0.000  0.00  0.00    +0.000 OA
ATOM     32  O   UNL     1       8.080  -5.188   0.000  0.00  0.00    +0.000 OA
ATOM     33  O   UNL     1       6.651  -6.013   0.000  0.00  0.00    +0.000 OA
ATOM     34  C   UNL     1       6.651  -3.538   0.000  0.00  0.00    +0.000 C 
ATOM     35  C   UNL     1       7.366  -3.951   0.000  0.00  0.00    +0.000 C 
ATOM     36  C   UNL     1       7.366  -4.776   0.000  0.00  0.00    +0.000 C 
ATOM     37  C   UNL     1       6.651  -5.188   0.000  0.00  0.00    +0.000 C 
ATOM     38  C   UNL     1       5.937  -4.776   0.000  0.00  0.00    +0.000 C 
ATOM     39  C   UNL     1       5.222  -5.188   0.000  0.00  0.00    +0.000 C 
ENDBRANCH  29  34
ENDBRANCH  24  29
BRANCH  28  40
ATOM     40  C   UNL     1       3.793  -1.063   0.000  0.00  0.00    +0.000 C 
BRANCH  40  41
ATOM     41  O   UNL     1       3.079  -1.476   0.000  0.00  0.00    +0.000 OA
BRANCH  41  43
ATOM     42  O   UNL     1       2.364  -0.238   0.000  0.00  0.00    +0.000 OA
ATOM     43  C   UNL     1       2.364  -1.063   0.000  0.00  0.00    +0.000 C 
ATOM     44  C   UNL     1       1.650  -1.476   0.000  0.00  0.00    +0.000 C 
ENDBRANCH  41  43
ENDBRANCH  40  41
ENDBRANCH  28  40
ENDBRANCH  20  27
ENDBRANCH   4  20
BRANCH   9  45
ATOM     45  O   UNL     1       5.927   3.531   0.000  0.00  0.00    +0.000 OA
BRANCH  45  54
ATOM     46  O   UNL     1       4.498   3.537   0.000  0.00  0.00    +0.000 OA
ATOM     47  O   UNL     1       4.508   6.012   0.000  0.00  0.00    +0.000 OA
ATOM     48  O   UNL     1       3.075   5.192   0.000  0.00  0.00    +0.000 OA
ATOM     49  O   UNL     1       5.933   5.181   0.000  0.00  0.00    +0.000 OA
ATOM     50  C   UNL     1       4.504   5.187   0.000  0.00  0.00    +0.000 C 
ATOM     51  C   UNL     1       3.788   4.777   0.000  0.00  0.00    +0.000 C 
ATOM     52  C   UNL     1       5.217   4.771   0.000  0.00  0.00    +0.000 C 
ATOM     53  C   UNL     1       3.785   3.952   0.000  0.00  0.00    +0.000 C 
ATOM     54  C   UNL     1       5.214   3.946   0.000  0.00  0.00    +0.000 C 
ATOM     55  C   UNL     1       3.069   3.542   0.000  0.00  0.00    +0.000 C 
ENDBRANCH  45  54
ENDBRANCH   9  45
TORSDOF 10
