REMARK  Name = 131752828
REMARK  9 active torsions:
REMARK  status: ('A' for Active; 'I' for Inactive)
REMARK    1  A    between atoms: O_1  and  C_18
REMARK    2  A    between atoms: O_1  and  C_20
REMARK    3  A    between atoms: O_5  and  C_24
REMARK    4  A    between atoms: O_5  and  C_30
REMARK    5  A    between atoms: O_10  and  C_29
REMARK    6  A    between atoms: O_10  and  C_33
REMARK    7  A    between atoms: C_25  and  C_28
REMARK    8  A    between atoms: C_27  and  C_29
REMARK    9  A    between atoms: C_31  and  C_35
REMARK                            x       y       z     vdW  Elec       q    Type
REMARK                         _______ _______ _______ _____ _____    ______ ____
ROOT
ATOM      1  O   UNL     1       4.236   0.177   0.000  0.00  0.00    +0.000 OA
ATOM      2  O   UNL     1       4.236  -2.298   0.000  0.00  0.00    +0.000 OA
ATOM      3  O   UNL     1       2.808  -1.473   0.000  0.00  0.00    +0.000 OA
ATOM      4  C   UNL     1       4.951  -1.061   0.000  0.00  0.00    +0.000 C 
ATOM      5  C   UNL     1       4.236  -1.473   0.000  0.00  0.00    +0.000 C 
ATOM      6  C   UNL     1       3.522  -1.061   0.000  0.00  0.00    +0.000 C 
ATOM      7  C   UNL     1       4.951  -0.236   0.000  0.00  0.00    +0.000 C 
ATOM      8  C   UNL     1       3.522  -0.236   0.000  0.00  0.00    +0.000 C 
ENDROOT
BRANCH   8  10
ATOM      9  O   UNL     1       2.093  -0.236   0.000  0.00  0.00    +0.000 OA
ATOM     10  C   UNL     1       2.808   0.177   0.000  0.00  0.00    +0.000 C 
ENDBRANCH   8  10
BRANCH   4  11
ATOM     11  O   UNL     1       5.665  -1.473   0.000  0.00  0.00    +0.000 OA
BRANCH  11  16
ATOM     12  O   UNL     1       4.951  -2.711   0.000  0.00  0.00    +0.000 OA
ATOM     13  O   UNL     1       7.094  -2.298   0.000  0.00  0.00    +0.000 OA
ATOM     14  O   UNL     1       7.094  -3.948   0.000  0.00  0.00    +0.000 OA
ATOM     15  O   UNL     1       5.665  -4.773   0.000  0.00  0.00    +0.000 OA
ATOM     16  C   UNL     1       5.665  -2.298   0.000  0.00  0.00    +0.000 C 
ATOM     17  C   UNL     1       6.380  -2.711   0.000  0.00  0.00    +0.000 C 
ATOM     18  C   UNL     1       6.380  -3.536   0.000  0.00  0.00    +0.000 C 
ATOM     19  C   UNL     1       5.665  -3.948   0.000  0.00  0.00    +0.000 C 
ATOM     20  C   UNL     1       4.951  -3.536   0.000  0.00  0.00    +0.000 C 
BRANCH  20  21
ATOM     21  C   UNL     1       4.236  -3.948   0.000  0.00  0.00    +0.000 C 
BRANCH  21  22
ATOM     22  O   UNL     1       3.522  -3.536   0.000  0.00  0.00    +0.000 OA
BRANCH  22  24
ATOM     23  O   UNL     1       2.808  -4.773   0.000  0.00  0.00    +0.000 OA
ATOM     24  C   UNL     1       2.808  -3.948   0.000  0.00  0.00    +0.000 C 
ATOM     25  C   UNL     1       2.093  -3.536   0.000  0.00  0.00    +0.000 C 
ENDBRANCH  22  24
ENDBRANCH  21  22
ENDBRANCH  20  21
ENDBRANCH  11  16
ENDBRANCH   4  11
BRANCH   7  26
ATOM     26  O   UNL     1       5.665   0.177   0.000  0.00  0.00    +0.000 OA
BRANCH  26  31
ATOM     27  O   UNL     1       6.380   2.239   0.000  0.00  0.00    +0.000 OA
ATOM     28  O   UNL     1       4.236   1.002   0.000  0.00  0.00    +0.000 OA
ATOM     29  O   UNL     1       3.490   2.237   0.000  0.00  0.00    +0.000 OA
ATOM     30  O   UNL     1       4.941   4.771   0.000  0.00  0.00    +0.000 OA
ATOM     31  C   UNL     1       5.665   1.002   0.000  0.00  0.00    +0.000 A 
ATOM     32  C   UNL     1       6.380   1.414   0.000  0.00  0.00    +0.000 A 
ATOM     33  C   UNL     1       4.951   1.414   0.000  0.00  0.00    +0.000 A 
ATOM     34  C   UNL     1       4.951   2.239   0.000  0.00  0.00    +0.000 A 
ATOM     35  C   UNL     1       5.665   2.652   0.000  0.00  0.00    +0.000 A 
ATOM     36  C   UNL     1       4.200   2.658   0.000  0.00  0.00    +0.000 A 
ATOM     37  C   UNL     1       5.679   3.511   0.000  0.00  0.00    +0.000 A 
ATOM     38  C   UNL     1       4.194   3.517   0.000  0.00  0.00    +0.000 A 
ATOM     39  C   UNL     1       4.938   3.946   0.000  0.00  0.00    +0.000 A 
BRANCH  32  41
ATOM     40  O   UNL     1       9.238  -0.236   0.000  0.00  0.00    +0.000 OA
ATOM     41  C   UNL     1       7.094   1.002   0.000  0.00  0.00    +0.000 A 
ATOM     42  C   UNL     1       7.094   0.177   0.000  0.00  0.00    +0.000 A 
ATOM     43  C   UNL     1       7.809   1.414   0.000  0.00  0.00    +0.000 A 
ATOM     44  C   UNL     1       7.809  -0.236   0.000  0.00  0.00    +0.000 A 
ATOM     45  C   UNL     1       8.523   1.002   0.000  0.00  0.00    +0.000 A 
ATOM     46  C   UNL     1       8.523   0.177   0.000  0.00  0.00    +0.000 A 
ENDBRANCH  32  41
ENDBRANCH  26  31
ENDBRANCH   7  26
TORSDOF 9
