REMARK  Name = 71326884
REMARK  8 active torsions:
REMARK  status: ('A' for Active; 'I' for Inactive)
REMARK    1  A    between atoms: O_1  and  C_18
REMARK    2  A    between atoms: O_1  and  C_20
REMARK    3  A    between atoms: O_5  and  C_25
REMARK    4  A    between atoms: O_5  and  C_30
REMARK    5  A    between atoms: O_15  and  C_42
REMARK    6  A    between atoms: O_16  and  C_43
REMARK    7  A    between atoms: C_27  and  C_29
REMARK    8  A    between atoms: C_37  and  C_39
REMARK                            x       y       z     vdW  Elec       q    Type
REMARK                         _______ _______ _______ _____ _____    ______ ____
ROOT
ATOM      1  O   UNL     1       5.665  -1.753   0.000  0.00  0.00    +0.000 OA
ENDROOT
BRANCH   1   5
ATOM      2  O   UNL     1       7.114   0.774   0.000  0.00  0.00    +0.000 OA
ATOM      3  O   UNL     1       4.225   0.787   0.000  0.00  0.00    +0.000 OA
ATOM      4  O   UNL     1       4.975   2.019   0.000  0.00  0.00    +0.000 OA
ATOM      5  C   UNL     1       5.665  -0.928   0.000  0.00  0.00    +0.000 A 
ATOM      6  C   UNL     1       6.408  -0.495   0.000  0.00  0.00    +0.000 A 
ATOM      7  C   UNL     1       4.923  -0.495   0.000  0.00  0.00    +0.000 A 
ATOM      8  C   UNL     1       6.398   0.364   0.000  0.00  0.00    +0.000 A 
ATOM      9  C   UNL     1       4.933   0.364   0.000  0.00  0.00    +0.000 A 
ATOM     10  C   UNL     1       5.685   0.779   0.000  0.00  0.00    +0.000 A 
ATOM     11  C   UNL     1       5.688   1.604   0.000  0.00  0.00    +0.000 A 
ATOM     12  C   UNL     1       7.117   1.599   0.000  0.00  0.00    +0.000 A 
ATOM     13  C   UNL     1       6.404   2.014   0.000  0.00  0.00    +0.000 A 
BRANCH  12  15
ATOM     14  O   UNL     1       9.981   3.238   0.000  0.00  0.00    +0.000 OA
ATOM     15  C   UNL     1       7.833   2.009   0.000  0.00  0.00    +0.000 A 
ATOM     16  C   UNL     1       8.546   1.593   0.000  0.00  0.00    +0.000 A 
ATOM     17  C   UNL     1       7.836   2.833   0.000  0.00  0.00    +0.000 A 
ATOM     18  C   UNL     1       8.552   3.243   0.000  0.00  0.00    +0.000 A 
ATOM     19  C   UNL     1       9.262   2.003   0.000  0.00  0.00    +0.000 A 
ATOM     20  C   UNL     1       9.265   2.828   0.000  0.00  0.00    +0.000 A 
BRANCH  18  21
ATOM     21  O   UNL     1       8.556   4.068   0.000  0.00  0.00    +0.000 OA
ATOM     22  C   UNL     1       7.843   4.484   0.000  0.00  0.00    +0.000 C 
ENDBRANCH  18  21
BRANCH  19  23
ATOM     23  O   UNL     1       9.975   1.588   0.000  0.00  0.00    +0.000 OA
ATOM     24  C   UNL     1      10.691   1.998   0.000  0.00  0.00    +0.000 C 
ENDBRANCH  19  23
ENDBRANCH  12  15
ENDBRANCH   1   5
BRANCH   1  31
ATOM     25  O   UNL     1       4.236  -1.753   0.000  0.00  0.00    +0.000 OA
ATOM     26  O   UNL     1       4.236  -4.228   0.000  0.00  0.00    +0.000 OA
ATOM     27  O   UNL     1       2.808  -3.403   0.000  0.00  0.00    +0.000 OA
ATOM     28  C   UNL     1       4.951  -2.990   0.000  0.00  0.00    +0.000 C 
ATOM     29  C   UNL     1       4.236  -3.403   0.000  0.00  0.00    +0.000 C 
ATOM     30  C   UNL     1       3.522  -2.990   0.000  0.00  0.00    +0.000 C 
ATOM     31  C   UNL     1       4.951  -2.165   0.000  0.00  0.00    +0.000 C 
ATOM     32  C   UNL     1       3.522  -2.165   0.000  0.00  0.00    +0.000 C 
BRANCH  32  35
ATOM     33  O   UNL     1       2.093  -2.165   0.000  0.00  0.00    +0.000 OA
ATOM     34  O   UNL     1       2.808  -0.928   0.000  0.00  0.00    +0.000 OA
ATOM     35  C   UNL     1       2.808  -1.753   0.000  0.00  0.00    +0.000 C 
ENDBRANCH  32  35
BRANCH  28  36
ATOM     36  O   UNL     1       5.665  -3.403   0.000  0.00  0.00    +0.000 OA
BRANCH  36  41
ATOM     37  O   UNL     1       6.380  -2.165   0.000  0.00  0.00    +0.000 OA
ATOM     38  O   UNL     1       7.094  -4.228   0.000  0.00  0.00    +0.000 OA
ATOM     39  O   UNL     1       8.523  -3.403   0.000  0.00  0.00    +0.000 OA
ATOM     40  O   UNL     1       8.523  -1.753   0.000  0.00  0.00    +0.000 OA
ATOM     41  C   UNL     1       6.380  -2.990   0.000  0.00  0.00    +0.000 C 
ATOM     42  C   UNL     1       7.094  -3.403   0.000  0.00  0.00    +0.000 C 
ATOM     43  C   UNL     1       7.809  -2.990   0.000  0.00  0.00    +0.000 C 
ATOM     44  C   UNL     1       7.809  -2.165   0.000  0.00  0.00    +0.000 C 
ATOM     45  C   UNL     1       7.094  -1.753   0.000  0.00  0.00    +0.000 C 
ATOM     46  C   UNL     1       7.094  -0.928   0.000  0.00  0.00    +0.000 C 
ENDBRANCH  36  41
ENDBRANCH  28  36
ENDBRANCH   1  31
TORSDOF 8
