REMARK  Name = 6454212
REMARK  2 active torsions:
REMARK  status: ('A' for Active; 'I' for Inactive)
REMARK    1  A    between atoms: O_2  and  C_18
REMARK    2  A    between atoms: C_4  and  C_8
REMARK                            x       y       z     vdW  Elec       q    Type
REMARK                         _______ _______ _______ _____ _____    ______ ____
ROOT
ATOM      1  O   UNL     1       5.006  -1.429   0.000  0.00  0.00    +0.000 OA
ATOM      2  O   UNL     1       2.094  -1.449   0.000  0.00  0.00    +0.000 OA
ATOM      3  C   UNL     1       5.721  -0.192   0.000  0.00  0.00    +0.000 C 
ATOM      4  C   UNL     1       5.006   0.221   0.000  0.00  0.00    +0.000 C 
ATOM      5  C   UNL     1       5.721  -1.017   0.000  0.00  0.00    +0.000 C 
ATOM      6  C   UNL     1       4.292  -0.192   0.000  0.00  0.00    +0.000 A 
ATOM      7  C   UNL     1       4.292  -1.017   0.000  0.00  0.00    +0.000 A 
ATOM      8  C   UNL     1       3.554   0.249   0.000  0.00  0.00    +0.000 A 
ATOM      9  C   UNL     1       3.554  -1.458   0.000  0.00  0.00    +0.000 A 
ATOM     10  C   UNL     1       2.807  -0.175   0.000  0.00  0.00    +0.000 A 
ATOM     11  C   UNL     1       2.807  -1.034   0.000  0.00  0.00    +0.000 A 
ENDROOT
BRANCH   3  12
ATOM     12  C   UNL     1       6.435   0.221   0.000  0.00  0.00    +0.000 A 
ATOM     13  C   UNL     1       6.435   1.046   0.000  0.00  0.00    +0.000 A 
ATOM     14  C   UNL     1       7.150  -0.192   0.000  0.00  0.00    +0.000 A 
ATOM     15  C   UNL     1       7.150   1.458   0.000  0.00  0.00    +0.000 A 
ATOM     16  C   UNL     1       7.864   0.221   0.000  0.00  0.00    +0.000 A 
ATOM     17  C   UNL     1       7.864   1.046   0.000  0.00  0.00    +0.000 A 
BRANCH  17  18
ATOM     18  O   UNL     1       8.579   1.458   0.000  0.00  0.00    +0.000 OA
ATOM     19  C   UNL     1       9.293   1.046   0.000  0.00  0.00    +0.000 C 
ENDBRANCH  17  18
ENDBRANCH   3  12
TORSDOF 2
