REMARK  Name = 131752604
REMARK  6 active torsions:
REMARK  status: ('A' for Active; 'I' for Inactive)
REMARK    1  A    between atoms: O_2  and  C_20
REMARK    2  A    between atoms: O_2  and  C_27
REMARK    3  A    between atoms: O_7  and  C_24
REMARK    4  A    between atoms: O_7  and  C_28
REMARK    5  A    between atoms: O_15  and  C_40
REMARK    6  A    between atoms: C_29  and  C_30
REMARK                            x       y       z     vdW  Elec       q    Type
REMARK                         _______ _______ _______ _____ _____    ______ ____
ROOT
ATOM      1  O   UNL     1       5.278  -0.206   0.000  0.00  0.00    +0.000 OA
ATOM      2  O   UNL     1       5.278   2.269   0.000  0.00  0.00    +0.000 OA
ATOM      3  O   UNL     1       3.836   2.297   0.000  0.00  0.00    +0.000 OA
ATOM      4  C   UNL     1       5.993   1.031   0.000  0.00  0.00    +0.000 A 
ATOM      5  C   UNL     1       5.993   0.206   0.000  0.00  0.00    +0.000 A 
ATOM      6  C   UNL     1       5.278   1.444   0.000  0.00  0.00    +0.000 A 
ATOM      7  C   UNL     1       4.564   1.031   0.000  0.00  0.00    +0.000 A 
ATOM      8  C   UNL     1       4.564   0.206   0.000  0.00  0.00    +0.000 A 
ATOM      9  C   UNL     1       3.826   1.472   0.000  0.00  0.00    +0.000 A 
ATOM     10  C   UNL     1       3.826  -0.235   0.000  0.00  0.00    +0.000 A 
ATOM     11  C   UNL     1       3.079   0.189   0.000  0.00  0.00    +0.000 A 
ATOM     12  C   UNL     1       3.079   1.048   0.000  0.00  0.00    +0.000 A 
ENDROOT
BRANCH   5  15
ATOM     13  O   UNL     1       8.851  -1.444   0.000  0.00  0.00    +0.000 OA
ATOM     14  C   UNL     1       7.422  -1.444   0.000  0.00  0.00    +0.000 A 
ATOM     15  C   UNL     1       6.707  -0.206   0.000  0.00  0.00    +0.000 A 
ATOM     16  C   UNL     1       6.707  -1.031   0.000  0.00  0.00    +0.000 A 
ATOM     17  C   UNL     1       8.136  -1.031   0.000  0.00  0.00    +0.000 A 
ATOM     18  C   UNL     1       7.422   0.206   0.000  0.00  0.00    +0.000 A 
ATOM     19  C   UNL     1       8.136  -0.206   0.000  0.00  0.00    +0.000 A 
BRANCH  14  20
ATOM     20  O   UNL     1       7.422  -2.269   0.000  0.00  0.00    +0.000 OA
BRANCH  20  29
ATOM     21  O   UNL     1       5.993  -2.269   0.000  0.00  0.00    +0.000 OA
ATOM     22  O   UNL     1       5.993  -4.744   0.000  0.00  0.00    +0.000 OA
ATOM     23  O   UNL     1       4.564  -3.919   0.000  0.00  0.00    +0.000 OA
ATOM     24  O   UNL     1       7.422  -3.919   0.000  0.00  0.00    +0.000 OA
ATOM     25  C   UNL     1       5.993  -3.919   0.000  0.00  0.00    +0.000 C 
ATOM     26  C   UNL     1       5.278  -3.506   0.000  0.00  0.00    +0.000 C 
ATOM     27  C   UNL     1       6.707  -3.506   0.000  0.00  0.00    +0.000 C 
ATOM     28  C   UNL     1       5.278  -2.681   0.000  0.00  0.00    +0.000 C 
ATOM     29  C   UNL     1       6.707  -2.681   0.000  0.00  0.00    +0.000 C 
ATOM     30  C   UNL     1       4.564  -2.269   0.000  0.00  0.00    +0.000 C 
ENDBRANCH  20  29
ENDBRANCH  14  20
ENDBRANCH   5  15
BRANCH  11  31
ATOM     31  O   UNL     1       2.366  -0.226   0.000  0.00  0.00    +0.000 OA
ATOM     32  C   UNL     1       1.650   0.184   0.000  0.00  0.00    +0.000 C 
ENDBRANCH  11  31
BRANCH   4  33
ATOM     33  O   UNL     1       6.707   1.444   0.000  0.00  0.00    +0.000 OA
BRANCH  33  41
ATOM     34  O   UNL     1       5.993   2.681   0.000  0.00  0.00    +0.000 OA
ATOM     35  O   UNL     1       8.136   3.919   0.000  0.00  0.00    +0.000 OA
ATOM     36  O   UNL     1       8.136   2.269   0.000  0.00  0.00    +0.000 OA
ATOM     37  O   UNL     1       6.707   4.744   0.000  0.00  0.00    +0.000 OA
ATOM     38  C   UNL     1       7.422   3.506   0.000  0.00  0.00    +0.000 C 
ATOM     39  C   UNL     1       7.422   2.681   0.000  0.00  0.00    +0.000 C 
ATOM     40  C   UNL     1       6.707   3.919   0.000  0.00  0.00    +0.000 C 
ATOM     41  C   UNL     1       6.707   2.269   0.000  0.00  0.00    +0.000 C 
ATOM     42  C   UNL     1       5.993   3.506   0.000  0.00  0.00    +0.000 C 
ENDBRANCH  33  41
ENDBRANCH   4  33
TORSDOF 6
