REMARK  Name = 44259783
REMARK  8 active torsions:
REMARK  status: ('A' for Active; 'I' for Inactive)
REMARK    1  A    between atoms: O_3  and  C_24
REMARK    2  A    between atoms: O_3  and  C_29
REMARK    3  A    between atoms: O_6  and  C_28
REMARK    4  A    between atoms: O_6  and  C_31
REMARK    5  A    between atoms: O_15  and  C_41
REMARK    6  A    between atoms: C_19  and  C_29
REMARK    7  A    between atoms: C_27  and  C_30
REMARK    8  A    between atoms: C_32  and  C_36
REMARK                            x       y       z     vdW  Elec       q    Type
REMARK                         _______ _______ _______ _____ _____    ______ ____
ROOT
ATOM      1  O   UNL     1       6.707   1.572   0.000  0.00  0.00    +0.000 OA
ENDROOT
BRANCH   1   6
ATOM      2  O   UNL     1       5.278   3.222   0.000  0.00  0.00    +0.000 OA
ATOM      3  O   UNL     1       5.278   0.747   0.000  0.00  0.00    +0.000 OA
ATOM      4  O   UNL     1       3.836   0.718   0.000  0.00  0.00    +0.000 OA
ATOM      5  O   UNL     1       2.366   3.242   0.000  0.00  0.00    +0.000 OA
ATOM      6  C   UNL     1       5.993   1.984   0.000  0.00  0.00    +0.000 A 
ATOM      7  C   UNL     1       5.993   2.809   0.000  0.00  0.00    +0.000 A 
ATOM      8  C   UNL     1       5.278   1.572   0.000  0.00  0.00    +0.000 A 
ATOM      9  C   UNL     1       4.564   1.984   0.000  0.00  0.00    +0.000 A 
ATOM     10  C   UNL     1       4.564   2.809   0.000  0.00  0.00    +0.000 A 
ATOM     11  C   UNL     1       3.826   1.543   0.000  0.00  0.00    +0.000 A 
ATOM     12  C   UNL     1       3.826   3.250   0.000  0.00  0.00    +0.000 A 
ATOM     13  C   UNL     1       3.079   1.967   0.000  0.00  0.00    +0.000 A 
ATOM     14  C   UNL     1       3.079   2.826   0.000  0.00  0.00    +0.000 A 
BRANCH   7  17
ATOM     15  O   UNL     1       8.851   2.809   0.000  0.00  0.00    +0.000 OA
ATOM     16  O   UNL     1       8.851   4.459   0.000  0.00  0.00    +0.000 OA
ATOM     17  C   UNL     1       6.707   3.222   0.000  0.00  0.00    +0.000 A 
ATOM     18  C   UNL     1       7.422   2.809   0.000  0.00  0.00    +0.000 A 
ATOM     19  C   UNL     1       6.707   4.047   0.000  0.00  0.00    +0.000 A 
ATOM     20  C   UNL     1       8.136   3.222   0.000  0.00  0.00    +0.000 A 
ATOM     21  C   UNL     1       7.422   4.459   0.000  0.00  0.00    +0.000 A 
ATOM     22  C   UNL     1       8.136   4.047   0.000  0.00  0.00    +0.000 A 
ENDBRANCH   7  17
BRANCH  13  23
ATOM     23  O   UNL     1       2.366   1.552   0.000  0.00  0.00    +0.000 OA
ATOM     24  C   UNL     1       1.650   1.961   0.000  0.00  0.00    +0.000 C 
ENDBRANCH  13  23
ENDBRANCH   1   6
BRANCH   1  33
ATOM     25  O   UNL     1       5.993   0.334   0.000  0.00  0.00    +0.000 OA
ATOM     26  O   UNL     1       6.707  -1.728   0.000  0.00  0.00    +0.000 OA
ATOM     27  O   UNL     1       8.136  -0.903   0.000  0.00  0.00    +0.000 OA
ATOM     28  O   UNL     1       8.136   0.747   0.000  0.00  0.00    +0.000 OA
ATOM     29  C   UNL     1       5.993  -0.491   0.000  0.00  0.00    +0.000 C 
ATOM     30  C   UNL     1       6.707  -0.903   0.000  0.00  0.00    +0.000 C 
ATOM     31  C   UNL     1       7.422  -0.491   0.000  0.00  0.00    +0.000 C 
ATOM     32  C   UNL     1       7.422   0.334   0.000  0.00  0.00    +0.000 C 
ATOM     33  C   UNL     1       6.707   0.747   0.000  0.00  0.00    +0.000 C 
BRANCH  29  34
ATOM     34  C   UNL     1       5.278  -0.903   0.000  0.00  0.00    +0.000 C 
BRANCH  34  35
ATOM     35  O   UNL     1       5.278  -1.728   0.000  0.00  0.00    +0.000 OA
BRANCH  35  41
ATOM     36  O   UNL     1       3.849  -1.728   0.000  0.00  0.00    +0.000 OA
ATOM     37  O   UNL     1       5.278  -3.378   0.000  0.00  0.00    +0.000 OA
ATOM     38  O   UNL     1       3.849  -4.203   0.000  0.00  0.00    +0.000 OA
ATOM     39  O   UNL     1       2.421  -3.378   0.000  0.00  0.00    +0.000 OA
ATOM     40  C   UNL     1       4.564  -2.966   0.000  0.00  0.00    +0.000 C 
ATOM     41  C   UNL     1       4.564  -2.141   0.000  0.00  0.00    +0.000 C 
ATOM     42  C   UNL     1       3.849  -3.378   0.000  0.00  0.00    +0.000 C 
ATOM     43  C   UNL     1       3.135  -2.966   0.000  0.00  0.00    +0.000 C 
ATOM     44  C   UNL     1       3.135  -2.141   0.000  0.00  0.00    +0.000 C 
BRANCH  44  46
ATOM     45  O   UNL     1       2.421  -0.903   0.000  0.00  0.00    +0.000 OA
ATOM     46  C   UNL     1       2.421  -1.728   0.000  0.00  0.00    +0.000 C 
ENDBRANCH  44  46
ENDBRANCH  35  41
ENDBRANCH  34  35
ENDBRANCH  29  34
ENDBRANCH   1  33
TORSDOF 8
