REMARK  Name = 42607809
REMARK  12 active torsions:
REMARK  status: ('A' for Active; 'I' for Inactive)
REMARK    1  A    between atoms: O_1  and  C_17
REMARK    2  A    between atoms: O_1  and  C_20
REMARK    3  A    between atoms: O_7  and  C_23
REMARK    4  A    between atoms: O_7  and  C_28
REMARK    5  A    between atoms: O_9  and  C_26
REMARK    6  A    between atoms: O_9  and  C_31
REMARK    7  A    between atoms: O_15  and  C_49
REMARK    8  A    between atoms: C_18  and  C_26
REMARK    9  A    between atoms: C_25  and  C_27
REMARK   10  A    between atoms: C_31  and  C_37
REMARK   11  A    between atoms: C_32  and  C_33
REMARK   12  A    between atoms: C_41  and  C_45
REMARK                            x       y       z     vdW  Elec       q    Type
REMARK                         _______ _______ _______ _____ _____    ______ ____
ROOT
ATOM      1  O   UNL     1       4.236  -1.614   0.000  0.00  0.00    +0.000 OA
ATOM      2  O   UNL     1       4.236  -4.089   0.000  0.00  0.00    +0.000 OA
ATOM      3  O   UNL     1       2.808  -3.264   0.000  0.00  0.00    +0.000 OA
ATOM      4  C   UNL     1       4.951  -2.852   0.000  0.00  0.00    +0.000 C 
ATOM      5  C   UNL     1       4.236  -3.264   0.000  0.00  0.00    +0.000 C 
ATOM      6  C   UNL     1       3.522  -2.852   0.000  0.00  0.00    +0.000 C 
ATOM      7  C   UNL     1       4.951  -2.027   0.000  0.00  0.00    +0.000 C 
ATOM      8  C   UNL     1       3.522  -2.027   0.000  0.00  0.00    +0.000 C 
ENDROOT
BRANCH   8  10
ATOM      9  O   UNL     1       2.093  -2.027   0.000  0.00  0.00    +0.000 OA
ATOM     10  C   UNL     1       2.808  -1.614   0.000  0.00  0.00    +0.000 C 
ENDBRANCH   8  10
BRANCH   4  11
ATOM     11  O   UNL     1       5.665  -3.264   0.000  0.00  0.00    +0.000 OA
BRANCH  11  17
ATOM     12  O   UNL     1       6.466  -2.031   0.000  0.00  0.00    +0.000 OA
ATOM     13  O   UNL     1       8.400  -2.162   0.000  0.00  0.00    +0.000 OA
ATOM     14  O   UNL     1       7.305  -3.994   0.000  0.00  0.00    +0.000 OA
ATOM     15  C   UNL     1       7.686  -2.574   0.000  0.00  0.00    +0.000 C 
ATOM     16  C   UNL     1       7.133  -3.188   0.000  0.00  0.00    +0.000 C 
ATOM     17  C   UNL     1       6.380  -2.852   0.000  0.00  0.00    +0.000 C 
ATOM     18  C   UNL     1       7.273  -1.860   0.000  0.00  0.00    +0.000 C 
BRANCH  15  19
ATOM     19  C   UNL     1       8.299  -3.126   0.000  0.00  0.00    +0.000 C 
BRANCH  19  20
ATOM     20  O   UNL     1       9.083  -2.872   0.000  0.00  0.00    +0.000 OA
BRANCH  20  22
ATOM     21  O   UNL     1       9.525  -4.231   0.000  0.00  0.00    +0.000 OA
ATOM     22  C   UNL     1       9.696  -3.424   0.000  0.00  0.00    +0.000 C 
BRANCH  22  23
ATOM     23  C   UNL     1      10.481  -3.169   0.000  0.00  0.00    +0.000 C 
ATOM     24  C   UNL     1      11.094  -3.721   0.000  0.00  0.00    +0.000 C 
BRANCH  24  26
ATOM     25  O   UNL     1      14.232  -2.701   0.000  0.00  0.00    +0.000 OA
ATOM     26  C   UNL     1      11.879  -3.466   0.000  0.00  0.00    +0.000 A 
ATOM     27  C   UNL     1      12.492  -4.018   0.000  0.00  0.00    +0.000 A 
ATOM     28  C   UNL     1      12.050  -2.659   0.000  0.00  0.00    +0.000 A 
ATOM     29  C   UNL     1      13.276  -3.763   0.000  0.00  0.00    +0.000 A 
ATOM     30  C   UNL     1      12.835  -2.404   0.000  0.00  0.00    +0.000 A 
ATOM     31  C   UNL     1      13.448  -2.956   0.000  0.00  0.00    +0.000 A 
BRANCH  29  32
ATOM     32  O   UNL     1      13.889  -4.315   0.000  0.00  0.00    +0.000 OA
ATOM     33  C   UNL     1      13.718  -5.122   0.000  0.00  0.00    +0.000 C 
ENDBRANCH  29  32
ENDBRANCH  24  26
ENDBRANCH  22  23
ENDBRANCH  20  22
ENDBRANCH  19  20
ENDBRANCH  15  19
ENDBRANCH  11  17
ENDBRANCH   4  11
BRANCH   7  34
ATOM     34  O   UNL     1       5.665  -1.614   0.000  0.00  0.00    +0.000 OA
BRANCH  34  35
ATOM     35  C   UNL     1       5.665  -0.789   0.000  0.00  0.00    +0.000 A 
ATOM     36  C   UNL     1       6.380  -0.377   0.000  0.00  0.00    +0.000 A 
ATOM     37  C   UNL     1       4.951  -0.377   0.000  0.00  0.00    +0.000 A 
ATOM     38  C   UNL     1       5.665   0.861   0.000  0.00  0.00    +0.000 A 
ATOM     39  C   UNL     1       6.380   0.448   0.000  0.00  0.00    +0.000 A 
ATOM     40  C   UNL     1       4.951   0.448   0.000  0.00  0.00    +0.000 A 
BRANCH  38  44
ATOM     41  O   UNL     1       6.380   2.098   0.000  0.00  0.00    +0.000 OA
ATOM     42  O   UNL     1       4.236   3.336   0.000  0.00  0.00    +0.000 OA
ATOM     43  O   UNL     1       7.853   4.610   0.000  0.00  0.00    +0.000 OA
ATOM     44  C   UNL     1       5.665   1.686   0.000  0.00  0.00    +0.000 C 
ATOM     45  C   UNL     1       4.951   2.098   0.000  0.00  0.00    +0.000 C 
ATOM     46  C   UNL     1       4.951   2.923   0.000  0.00  0.00    +0.000 C 
ATOM     47  C   UNL     1       6.380   2.923   0.000  0.00  0.00    +0.000 A 
ATOM     48  C   UNL     1       5.665   3.336   0.000  0.00  0.00    +0.000 A 
ATOM     49  C   UNL     1       7.131   3.341   0.000  0.00  0.00    +0.000 A 
ATOM     50  C   UNL     1       5.652   4.195   0.000  0.00  0.00    +0.000 A 
ATOM     51  C   UNL     1       7.137   4.201   0.000  0.00  0.00    +0.000 A 
ATOM     52  C   UNL     1       6.393   4.630   0.000  0.00  0.00    +0.000 A 
ENDBRANCH  38  44
ENDBRANCH  34  35
ENDBRANCH   7  34
TORSDOF 12
