REMARK  Name = 73813319
REMARK  7 active torsions:
REMARK  status: ('A' for Active; 'I' for Inactive)
REMARK    1  A    between atoms: O_3  and  C_25
REMARK    2  A    between atoms: O_3  and  C_35
REMARK    3  A    between atoms: O_4  and  C_26
REMARK    4  A    between atoms: O_4  and  C_36
REMARK    5  A    between atoms: C_22  and  C_29
REMARK    6  A    between atoms: C_24  and  C_30
REMARK    7  A    between atoms: C_27  and  C_33
REMARK                            x       y       z     vdW  Elec       q    Type
REMARK                         _______ _______ _______ _____ _____    ______ ____
ROOT
ATOM      1  O   UNL     1       7.114   0.523   0.000  0.00  0.00    +0.000 OA
ATOM      2  O   UNL     1       6.407   2.589   0.000  0.00  0.00    +0.000 OA
ATOM      3  O   UNL     1       4.225   0.537   0.000  0.00  0.00    +0.000 OA
ATOM      4  C   UNL     1       7.117   1.349   0.000  0.00  0.00    +0.000 C 
ATOM      5  C   UNL     1       6.404   1.764   0.000  0.00  0.00    +0.000 C 
ATOM      6  C   UNL     1       5.688   1.354   0.000  0.00  0.00    +0.000 C 
ATOM      7  C   UNL     1       5.685   0.529   0.000  0.00  0.00    +0.000 A 
ATOM      8  C   UNL     1       6.398   0.114   0.000  0.00  0.00    +0.000 A 
ATOM      9  C   UNL     1       5.665  -1.178   0.000  0.00  0.00    +0.000 A 
ATOM     10  C   UNL     1       6.408  -0.746   0.000  0.00  0.00    +0.000 A 
ATOM     11  C   UNL     1       4.933   0.114   0.000  0.00  0.00    +0.000 A 
ATOM     12  C   UNL     1       4.923  -0.746   0.000  0.00  0.00    +0.000 A 
ENDROOT
BRANCH   4  14
ATOM     13  O   UNL     1       9.981   2.987   0.000  0.00  0.00    +0.000 OA
ATOM     14  C   UNL     1       7.833   1.758   0.000  0.00  0.00    +0.000 A 
ATOM     15  C   UNL     1       9.262   1.753   0.000  0.00  0.00    +0.000 A 
ATOM     16  C   UNL     1       8.546   1.343   0.000  0.00  0.00    +0.000 A 
ATOM     17  C   UNL     1       7.836   2.583   0.000  0.00  0.00    +0.000 A 
ATOM     18  C   UNL     1       9.265   2.578   0.000  0.00  0.00    +0.000 A 
ATOM     19  C   UNL     1       8.552   2.993   0.000  0.00  0.00    +0.000 A 
BRANCH  15  20
ATOM     20  O   UNL     1       9.975   1.338   0.000  0.00  0.00    +0.000 OA
BRANCH  20  29
ATOM     21  O   UNL     1      10.694   2.572   0.000  0.00  0.00    +0.000 OA
ATOM     22  O   UNL     1      12.833   1.327   0.000  0.00  0.00    +0.000 OA
ATOM     23  O   UNL     1      12.839   2.977   0.000  0.00  0.00    +0.000 OA
ATOM     24  O   UNL     1      11.401   0.507   0.000  0.00  0.00    +0.000 OA
ATOM     25  C   UNL     1      12.120   1.742   0.000  0.00  0.00    +0.000 C 
ATOM     26  C   UNL     1      12.123   2.567   0.000  0.00  0.00    +0.000 C 
ATOM     27  C   UNL     1      11.404   1.332   0.000  0.00  0.00    +0.000 C 
ATOM     28  C   UNL     1      11.410   2.982   0.000  0.00  0.00    +0.000 C 
ATOM     29  C   UNL     1      10.691   1.747   0.000  0.00  0.00    +0.000 C 
BRANCH  28  31
ATOM     30  O   UNL     1      10.701   4.222   0.000  0.00  0.00    +0.000 OA
ATOM     31  C   UNL     1      11.414   3.807   0.000  0.00  0.00    +0.000 C 
ENDBRANCH  28  31
ENDBRANCH  20  29
ENDBRANCH  15  20
ENDBRANCH   4  14
BRANCH   9  32
ATOM     32  O   UNL     1       5.665  -2.003   0.000  0.00  0.00    +0.000 OA
BRANCH  32  41
ATOM     33  O   UNL     1       4.236  -2.003   0.000  0.00  0.00    +0.000 OA
ATOM     34  O   UNL     1       4.236  -4.478   0.000  0.00  0.00    +0.000 OA
ATOM     35  O   UNL     1       2.808  -3.653   0.000  0.00  0.00    +0.000 OA
ATOM     36  O   UNL     1       5.665  -3.653   0.000  0.00  0.00    +0.000 OA
ATOM     37  C   UNL     1       4.236  -3.653   0.000  0.00  0.00    +0.000 C 
ATOM     38  C   UNL     1       3.522  -3.240   0.000  0.00  0.00    +0.000 C 
ATOM     39  C   UNL     1       4.951  -3.240   0.000  0.00  0.00    +0.000 C 
ATOM     40  C   UNL     1       3.522  -2.416   0.000  0.00  0.00    +0.000 C 
ATOM     41  C   UNL     1       4.951  -2.416   0.000  0.00  0.00    +0.000 C 
BRANCH  40  43
ATOM     42  O   UNL     1       2.093  -2.416   0.000  0.00  0.00    +0.000 OA
ATOM     43  C   UNL     1       2.808  -2.003   0.000  0.00  0.00    +0.000 C 
ENDBRANCH  40  43
ENDBRANCH  32  41
ENDBRANCH   9  32
TORSDOF 7
