REMARK  Name = 44259791
REMARK  9 active torsions:
REMARK  status: ('A' for Active; 'I' for Inactive)
REMARK    1  A    between atoms: O_3  and  C_25
REMARK    2  A    between atoms: O_3  and  C_29
REMARK    3  A    between atoms: O_6  and  C_28
REMARK    4  A    between atoms: O_6  and  C_31
REMARK    5  A    between atoms: O_15  and  C_41
REMARK    6  A    between atoms: O_17  and  C_43
REMARK    7  A    between atoms: C_19  and  C_29
REMARK    8  A    between atoms: C_27  and  C_30
REMARK    9  A    between atoms: C_32  and  C_36
REMARK                            x       y       z     vdW  Elec       q    Type
REMARK                         _______ _______ _______ _____ _____    ______ ____
ROOT
ATOM      1  O   UNL     1       5.278   3.222   0.000  0.00  0.00    +0.000 OA
ATOM      2  O   UNL     1       5.278   0.747   0.000  0.00  0.00    +0.000 OA
ATOM      3  O   UNL     1       3.836   0.718   0.000  0.00  0.00    +0.000 OA
ATOM      4  O   UNL     1       2.366   3.242   0.000  0.00  0.00    +0.000 OA
ATOM      5  C   UNL     1       5.993   1.984   0.000  0.00  0.00    +0.000 A 
ATOM      6  C   UNL     1       5.993   2.809   0.000  0.00  0.00    +0.000 A 
ATOM      7  C   UNL     1       5.278   1.572   0.000  0.00  0.00    +0.000 A 
ATOM      8  C   UNL     1       4.564   1.984   0.000  0.00  0.00    +0.000 A 
ATOM      9  C   UNL     1       4.564   2.809   0.000  0.00  0.00    +0.000 A 
ATOM     10  C   UNL     1       3.826   1.543   0.000  0.00  0.00    +0.000 A 
ATOM     11  C   UNL     1       3.826   3.250   0.000  0.00  0.00    +0.000 A 
ATOM     12  C   UNL     1       3.079   1.967   0.000  0.00  0.00    +0.000 A 
ATOM     13  C   UNL     1       3.079   2.826   0.000  0.00  0.00    +0.000 A 
ENDROOT
BRANCH   6  15
ATOM     14  O   UNL     1       8.851   4.459   0.000  0.00  0.00    +0.000 OA
ATOM     15  C   UNL     1       6.707   3.222   0.000  0.00  0.00    +0.000 A 
ATOM     16  C   UNL     1       7.422   2.809   0.000  0.00  0.00    +0.000 A 
ATOM     17  C   UNL     1       6.707   4.047   0.000  0.00  0.00    +0.000 A 
ATOM     18  C   UNL     1       8.136   3.222   0.000  0.00  0.00    +0.000 A 
ATOM     19  C   UNL     1       7.422   4.459   0.000  0.00  0.00    +0.000 A 
ATOM     20  C   UNL     1       8.136   4.047   0.000  0.00  0.00    +0.000 A 
BRANCH  18  21
ATOM     21  O   UNL     1       8.851   2.809   0.000  0.00  0.00    +0.000 OA
ATOM     22  C   UNL     1       8.851   1.984   0.000  0.00  0.00    +0.000 C 
ENDBRANCH  18  21
ENDBRANCH   6  15
BRANCH  12  23
ATOM     23  O   UNL     1       2.366   1.552   0.000  0.00  0.00    +0.000 OA
ATOM     24  C   UNL     1       1.650   1.961   0.000  0.00  0.00    +0.000 C 
ENDBRANCH  12  23
BRANCH   5  25
ATOM     25  O   UNL     1       6.707   1.572   0.000  0.00  0.00    +0.000 OA
BRANCH  25  34
ATOM     26  O   UNL     1       5.993   0.334   0.000  0.00  0.00    +0.000 OA
ATOM     27  O   UNL     1       6.707  -1.728   0.000  0.00  0.00    +0.000 OA
ATOM     28  O   UNL     1       8.136  -0.903   0.000  0.00  0.00    +0.000 OA
ATOM     29  O   UNL     1       8.136   0.747   0.000  0.00  0.00    +0.000 OA
ATOM     30  C   UNL     1       5.993  -0.491   0.000  0.00  0.00    +0.000 C 
ATOM     31  C   UNL     1       6.707  -0.903   0.000  0.00  0.00    +0.000 C 
ATOM     32  C   UNL     1       7.422  -0.491   0.000  0.00  0.00    +0.000 C 
ATOM     33  C   UNL     1       7.422   0.334   0.000  0.00  0.00    +0.000 C 
ATOM     34  C   UNL     1       6.707   0.747   0.000  0.00  0.00    +0.000 C 
BRANCH  30  35
ATOM     35  C   UNL     1       5.278  -0.903   0.000  0.00  0.00    +0.000 C 
BRANCH  35  36
ATOM     36  O   UNL     1       5.278  -1.728   0.000  0.00  0.00    +0.000 OA
BRANCH  36  43
ATOM     37  O   UNL     1       3.849  -1.728   0.000  0.00  0.00    +0.000 OA
ATOM     38  O   UNL     1       5.278  -3.378   0.000  0.00  0.00    +0.000 OA
ATOM     39  O   UNL     1       3.849  -4.203   0.000  0.00  0.00    +0.000 OA
ATOM     40  O   UNL     1       2.421  -3.378   0.000  0.00  0.00    +0.000 OA
ATOM     41  C   UNL     1       4.564  -2.966   0.000  0.00  0.00    +0.000 C 
ATOM     42  C   UNL     1       3.849  -3.378   0.000  0.00  0.00    +0.000 C 
ATOM     43  C   UNL     1       4.564  -2.141   0.000  0.00  0.00    +0.000 C 
ATOM     44  C   UNL     1       3.135  -2.966   0.000  0.00  0.00    +0.000 C 
ATOM     45  C   UNL     1       3.135  -2.141   0.000  0.00  0.00    +0.000 C 
BRANCH  45  47
ATOM     46  O   UNL     1       2.421  -0.903   0.000  0.00  0.00    +0.000 OA
ATOM     47  C   UNL     1       2.421  -1.728   0.000  0.00  0.00    +0.000 C 
ENDBRANCH  45  47
ENDBRANCH  36  43
ENDBRANCH  35  36
ENDBRANCH  30  35
ENDBRANCH  25  34
ENDBRANCH   5  25
TORSDOF 9
