REMARK  Name = 74978169
REMARK  10 active torsions:
REMARK  status: ('A' for Active; 'I' for Inactive)
REMARK    1  A    between atoms: O_1  and  C_24
REMARK    2  A    between atoms: O_1  and  C_27
REMARK    3  A    between atoms: O_4  and  C_29
REMARK    4  A    between atoms: O_4  and  C_39
REMARK    5  A    between atoms: O_13  and  C_40
REMARK    6  A    between atoms: O_13  and  C_47
REMARK    7  A    between atoms: C_30  and  C_34
REMARK    8  A    between atoms: C_33  and  C_35
REMARK    9  A    between atoms: C_41  and  C_46
REMARK   10  A    between atoms: C_42  and  C_48
REMARK                            x       y       z     vdW  Elec       q    Type
REMARK                         _______ _______ _______ _____ _____    ______ ____
ROOT
ATOM      1  O   UNL     1       7.104   1.001   0.000  0.00  0.00    +0.000 OA
ATOM      2  O   UNL     1       4.960  -0.237   0.000  0.00  0.00    +0.000 OA
ATOM      3  O   UNL     1       4.214   0.998   0.000  0.00  0.00    +0.000 OA
ATOM      4  C   UNL     1       6.389  -0.237   0.000  0.00  0.00    +0.000 A 
ATOM      5  C   UNL     1       7.104   0.176   0.000  0.00  0.00    +0.000 A 
ATOM      6  C   UNL     1       5.675   0.176   0.000  0.00  0.00    +0.000 A 
ATOM      7  C   UNL     1       5.675   1.001   0.000  0.00  0.00    +0.000 A 
ATOM      8  C   UNL     1       6.389   1.413   0.000  0.00  0.00    +0.000 A 
ATOM      9  C   UNL     1       5.662   2.708   0.000  0.00  0.00    +0.000 A 
ATOM     10  C   UNL     1       6.402   2.272   0.000  0.00  0.00    +0.000 A 
ATOM     11  C   UNL     1       4.924   1.419   0.000  0.00  0.00    +0.000 A 
ATOM     12  C   UNL     1       4.917   2.278   0.000  0.00  0.00    +0.000 A 
ENDROOT
BRANCH   5  15
ATOM     13  O   UNL     1       9.961   0.176   0.000  0.00  0.00    +0.000 OA
ATOM     14  O   UNL     1       9.961  -1.474   0.000  0.00  0.00    +0.000 OA
ATOM     15  C   UNL     1       7.818  -0.237   0.000  0.00  0.00    +0.000 A 
ATOM     16  C   UNL     1       8.533   0.176   0.000  0.00  0.00    +0.000 A 
ATOM     17  C   UNL     1       7.818  -1.062   0.000  0.00  0.00    +0.000 A 
ATOM     18  C   UNL     1       9.247  -0.237   0.000  0.00  0.00    +0.000 A 
ATOM     19  C   UNL     1       8.533  -1.474   0.000  0.00  0.00    +0.000 A 
ATOM     20  C   UNL     1       9.247  -1.062   0.000  0.00  0.00    +0.000 A 
ENDBRANCH   5  15
BRANCH   4  21
ATOM     21  O   UNL     1       6.389  -1.062   0.000  0.00  0.00    +0.000 OA
BRANCH  21  28
ATOM     22  O   UNL     1       4.960  -1.062   0.000  0.00  0.00    +0.000 OA
ATOM     23  O   UNL     1       4.960  -3.537   0.000  0.00  0.00    +0.000 OA
ATOM     24  O   UNL     1       3.531  -2.712   0.000  0.00  0.00    +0.000 OA
ATOM     25  C   UNL     1       5.675  -2.299   0.000  0.00  0.00    +0.000 C 
ATOM     26  C   UNL     1       4.960  -2.712   0.000  0.00  0.00    +0.000 C 
ATOM     27  C   UNL     1       4.246  -2.299   0.000  0.00  0.00    +0.000 C 
ATOM     28  C   UNL     1       5.675  -1.474   0.000  0.00  0.00    +0.000 C 
ATOM     29  C   UNL     1       4.246  -1.474   0.000  0.00  0.00    +0.000 C 
BRANCH  29  31
ATOM     30  O   UNL     1       2.817  -1.474   0.000  0.00  0.00    +0.000 OA
ATOM     31  C   UNL     1       3.531  -1.062   0.000  0.00  0.00    +0.000 C 
ENDBRANCH  29  31
BRANCH  25  32
ATOM     32  O   UNL     1       6.389  -2.712   0.000  0.00  0.00    +0.000 OA
BRANCH  32  37
ATOM     33  O   UNL     1       5.675  -3.949   0.000  0.00  0.00    +0.000 OA
ATOM     34  O   UNL     1       7.818  -3.537   0.000  0.00  0.00    +0.000 OA
ATOM     35  O   UNL     1       7.818  -5.187   0.000  0.00  0.00    +0.000 OA
ATOM     36  O   UNL     1       6.389  -6.012   0.000  0.00  0.00    +0.000 OA
ATOM     37  C   UNL     1       6.389  -3.537   0.000  0.00  0.00    +0.000 C 
ATOM     38  C   UNL     1       7.104  -3.949   0.000  0.00  0.00    +0.000 C 
ATOM     39  C   UNL     1       7.104  -4.774   0.000  0.00  0.00    +0.000 C 
ATOM     40  C   UNL     1       6.389  -5.187   0.000  0.00  0.00    +0.000 C 
ATOM     41  C   UNL     1       5.675  -4.774   0.000  0.00  0.00    +0.000 C 
BRANCH  41  43
ATOM     42  O   UNL     1       4.246  -4.774   0.000  0.00  0.00    +0.000 OA
ATOM     43  C   UNL     1       4.960  -5.187   0.000  0.00  0.00    +0.000 C 
ENDBRANCH  41  43
ENDBRANCH  32  37
ENDBRANCH  25  32
ENDBRANCH  21  28
ENDBRANCH   4  21
BRANCH   9  44
ATOM     44  O   UNL     1       5.665   3.533   0.000  0.00  0.00    +0.000 OA
BRANCH  44  52
ATOM     45  O   UNL     1       4.236   3.538   0.000  0.00  0.00    +0.000 OA
ATOM     46  O   UNL     1       4.245   6.013   0.000  0.00  0.00    +0.000 OA
ATOM     47  O   UNL     1       5.671   5.183   0.000  0.00  0.00    +0.000 OA
ATOM     48  O   UNL     1       2.813   5.194   0.000  0.00  0.00    +0.000 OA
ATOM     49  C   UNL     1       4.242   5.188   0.000  0.00  0.00    +0.000 C 
ATOM     50  C   UNL     1       4.955   4.773   0.000  0.00  0.00    +0.000 C 
ATOM     51  C   UNL     1       3.526   4.779   0.000  0.00  0.00    +0.000 C 
ATOM     52  C   UNL     1       4.952   3.948   0.000  0.00  0.00    +0.000 C 
ATOM     53  C   UNL     1       3.523   3.954   0.000  0.00  0.00    +0.000 C 
BRANCH  53  56
ATOM     54  O   UNL     1       2.094   3.959   0.000  0.00  0.00    +0.000 OA
ATOM     55  O   UNL     1       2.804   2.719   0.000  0.00  0.00    +0.000 OA
ATOM     56  C   UNL     1       2.807   3.544   0.000  0.00  0.00    +0.000 C 
ENDBRANCH  53  56
ENDBRANCH  44  52
ENDBRANCH   9  44
TORSDOF 10
