REMARK  Name = 44259831
REMARK  11 active torsions:
REMARK  status: ('A' for Active; 'I' for Inactive)
REMARK    1  A    between atoms: O_1  and  C_18
REMARK    2  A    between atoms: O_1  and  C_21
REMARK    3  A    between atoms: O_5  and  C_27
REMARK    4  A    between atoms: O_5  and  C_30
REMARK    5  A    between atoms: O_11  and  C_32
REMARK    6  A    between atoms: O_13  and  C_34
REMARK    7  A    between atoms: O_15  and  C_37
REMARK    8  A    between atoms: O_16  and  C_45
REMARK    9  A    between atoms: O_17  and  C_47
REMARK   10  A    between atoms: C_26  and  C_29
REMARK   11  A    between atoms: C_38  and  C_39
REMARK                            x       y       z     vdW  Elec       q    Type
REMARK                         _______ _______ _______ _____ _____    ______ ____
ROOT
ATOM      1  O   UNL     1       4.247   2.212   0.000  0.00  0.00    +0.000 OA
ATOM      2  O   UNL     1       6.376   0.950   0.000  0.00  0.00    +0.000 OA
ATOM      3  C   UNL     1       4.951   0.107   0.000  0.00  0.00    +0.000 A 
ATOM      4  C   UNL     1       4.947   0.966   0.000  0.00  0.00    +0.000 A 
ATOM      5  C   UNL     1       4.205  -0.320   0.000  0.00  0.00    +0.000 A 
ATOM      6  C   UNL     1       4.238   1.387   0.000  0.00  0.00    +0.000 A 
ATOM      7  C   UNL     1       3.466   0.118   0.000  0.00  0.00    +0.000 A 
ATOM      8  C   UNL     1       5.667   1.370   0.000  0.00  0.00    +0.000 A 
ATOM      9  C   UNL     1       3.482   0.977   0.000  0.00  0.00    +0.000 A 
ATOM     10  C   UNL     1       5.676   2.195   0.000  0.00  0.00    +0.000 A 
ATOM     11  C   UNL     1       4.967   2.616   0.000  0.00  0.00    +0.000 A 
ENDROOT
BRANCH  11  12
ATOM     12  C   UNL     1       4.976   3.441   0.000  0.00  0.00    +0.000 A 
ATOM     13  C   UNL     1       5.695   3.845   0.000  0.00  0.00    +0.000 A 
ATOM     14  C   UNL     1       4.266   3.862   0.000  0.00  0.00    +0.000 A 
ATOM     15  C   UNL     1       5.705   4.670   0.000  0.00  0.00    +0.000 A 
ATOM     16  C   UNL     1       4.276   4.687   0.000  0.00  0.00    +0.000 A 
ATOM     17  C   UNL     1       4.995   5.091   0.000  0.00  0.00    +0.000 A 
BRANCH  15  18
ATOM     18  O   UNL     1       6.424   5.074   0.000  0.00  0.00    +0.000 OA
ATOM     19  C   UNL     1       6.434   5.899   0.000  0.00  0.00    +0.000 C 
ENDBRANCH  15  18
BRANCH  17  20
ATOM     20  O   UNL     1       5.005   5.916   0.000  0.00  0.00    +0.000 OA
ATOM     21  C   UNL     1       4.295   6.337   0.000  0.00  0.00    +0.000 C 
ENDBRANCH  17  20
ENDBRANCH  11  12
BRANCH   5  22
ATOM     22  O   UNL     1       4.199  -1.145   0.000  0.00  0.00    +0.000 OA
ATOM     23  C   UNL     1       3.481  -1.552   0.000  0.00  0.00    +0.000 C 
ENDBRANCH   5  22
BRANCH   7  24
ATOM     24  O   UNL     1       2.745  -0.283   0.000  0.00  0.00    +0.000 OA
ATOM     25  C   UNL     1       2.037   0.140   0.000  0.00  0.00    +0.000 C 
ENDBRANCH   7  24
BRANCH  10  26
ATOM     26  O   UNL     1       6.396   2.599   0.000  0.00  0.00    +0.000 OA
ATOM     27  C   UNL     1       7.105   2.179   0.000  0.00  0.00    +0.000 C 
ENDBRANCH  10  26
BRANCH   3  28
ATOM     28  O   UNL     1       5.665  -0.306   0.000  0.00  0.00    +0.000 OA
BRANCH  28  36
ATOM     29  O   UNL     1       4.951  -1.543   0.000  0.00  0.00    +0.000 OA
ATOM     30  O   UNL     1       7.094  -2.781   0.000  0.00  0.00    +0.000 OA
ATOM     31  O   UNL     1       7.094  -1.131   0.000  0.00  0.00    +0.000 OA
ATOM     32  C   UNL     1       5.665  -2.781   0.000  0.00  0.00    +0.000 C 
ATOM     33  C   UNL     1       6.380  -2.368   0.000  0.00  0.00    +0.000 C 
ATOM     34  C   UNL     1       4.951  -2.368   0.000  0.00  0.00    +0.000 C 
ATOM     35  C   UNL     1       6.380  -1.543   0.000  0.00  0.00    +0.000 C 
ATOM     36  C   UNL     1       5.665  -1.131   0.000  0.00  0.00    +0.000 C 
ATOM     37  C   UNL     1       4.236  -2.781   0.000  0.00  0.00    +0.000 C 
BRANCH  32  38
ATOM     38  O   UNL     1       5.665  -3.606   0.000  0.00  0.00    +0.000 OA
BRANCH  38  43
ATOM     39  O   UNL     1       4.236  -3.606   0.000  0.00  0.00    +0.000 OA
ATOM     40  O   UNL     1       5.665  -5.256   0.000  0.00  0.00    +0.000 OA
ATOM     41  O   UNL     1       4.236  -6.081   0.000  0.00  0.00    +0.000 OA
ATOM     42  O   UNL     1       2.808  -5.256   0.000  0.00  0.00    +0.000 OA
ATOM     43  C   UNL     1       4.951  -4.018   0.000  0.00  0.00    +0.000 C 
ATOM     44  C   UNL     1       4.951  -4.843   0.000  0.00  0.00    +0.000 C 
ATOM     45  C   UNL     1       4.236  -5.256   0.000  0.00  0.00    +0.000 C 
ATOM     46  C   UNL     1       3.522  -4.843   0.000  0.00  0.00    +0.000 C 
ATOM     47  C   UNL     1       3.522  -4.018   0.000  0.00  0.00    +0.000 C 
BRANCH  47  49
ATOM     48  O   UNL     1       2.093  -4.018   0.000  0.00  0.00    +0.000 OA
ATOM     49  C   UNL     1       2.808  -3.606   0.000  0.00  0.00    +0.000 C 
ENDBRANCH  47  49
ENDBRANCH  38  43
ENDBRANCH  32  38
ENDBRANCH  28  36
ENDBRANCH   3  28
TORSDOF 11
