REMARK  Name = 5317290
REMARK  5 active torsions:
REMARK  status: ('A' for Active; 'I' for Inactive)
REMARK    1  A    between atoms: O_2  and  C_17
REMARK    2  A    between atoms: O_2  and  C_19
REMARK    3  A    between atoms: O_9  and  C_27
REMARK    4  A    between atoms: O_10  and  C_28
REMARK    5  A    between atoms: C_20  and  C_24
REMARK                            x       y       z     vdW  Elec       q    Type
REMARK                         _______ _______ _______ _____ _____    ______ ____
ROOT
ATOM      1  O   UNL     1       5.665   0.926   0.000  0.00  0.00    +0.000 OA
ATOM      2  O   UNL     1       3.522  -0.312   0.000  0.00  0.00    +0.000 OA
ATOM      3  O   UNL     1       2.776   0.923   0.000  0.00  0.00    +0.000 OA
ATOM      4  C   UNL     1       4.951  -0.312   0.000  0.00  0.00    +0.000 A 
ATOM      5  C   UNL     1       5.665   0.101   0.000  0.00  0.00    +0.000 A 
ATOM      6  C   UNL     1       4.236   0.101   0.000  0.00  0.00    +0.000 A 
ATOM      7  C   UNL     1       4.236   0.926   0.000  0.00  0.00    +0.000 A 
ATOM      8  C   UNL     1       4.951   1.338   0.000  0.00  0.00    +0.000 A 
ATOM      9  C   UNL     1       3.486   1.344   0.000  0.00  0.00    +0.000 A 
ATOM     10  C   UNL     1       4.964   2.197   0.000  0.00  0.00    +0.000 A 
ATOM     11  C   UNL     1       3.479   2.203   0.000  0.00  0.00    +0.000 A 
ATOM     12  C   UNL     1       4.223   2.633   0.000  0.00  0.00    +0.000 A 
ENDROOT
BRANCH   5  15
ATOM     13  O   UNL     1       8.523   0.101   0.000  0.00  0.00    +0.000 OA
ATOM     14  O   UNL     1       8.523  -1.549   0.000  0.00  0.00    +0.000 OA
ATOM     15  C   UNL     1       6.380  -0.312   0.000  0.00  0.00    +0.000 A 
ATOM     16  C   UNL     1       7.094   0.101   0.000  0.00  0.00    +0.000 A 
ATOM     17  C   UNL     1       6.380  -1.137   0.000  0.00  0.00    +0.000 A 
ATOM     18  C   UNL     1       7.809  -0.312   0.000  0.00  0.00    +0.000 A 
ATOM     19  C   UNL     1       7.094  -1.549   0.000  0.00  0.00    +0.000 A 
ATOM     20  C   UNL     1       7.809  -1.137   0.000  0.00  0.00    +0.000 A 
ENDBRANCH   5  15
BRANCH  11  21
ATOM     21  O   UNL     1       2.763   2.613   0.000  0.00  0.00    +0.000 OA
ATOM     22  C   UNL     1       2.760   3.438   0.000  0.00  0.00    +0.000 C 
ENDBRANCH  11  21
BRANCH  12  23
ATOM     23  O   UNL     1       4.226   3.458   0.000  0.00  0.00    +0.000 OA
ATOM     24  C   UNL     1       4.942   3.868   0.000  0.00  0.00    +0.000 C 
ENDBRANCH  12  23
BRANCH   4  25
ATOM     25  O   UNL     1       4.951  -1.137   0.000  0.00  0.00    +0.000 OA
BRANCH  25  34
ATOM     26  O   UNL     1       3.522  -1.137   0.000  0.00  0.00    +0.000 OA
ATOM     27  O   UNL     1       3.522  -3.612   0.000  0.00  0.00    +0.000 OA
ATOM     28  O   UNL     1       2.093  -2.787   0.000  0.00  0.00    +0.000 OA
ATOM     29  O   UNL     1       4.951  -2.787   0.000  0.00  0.00    +0.000 OA
ATOM     30  C   UNL     1       3.522  -2.787   0.000  0.00  0.00    +0.000 C 
ATOM     31  C   UNL     1       2.808  -2.374   0.000  0.00  0.00    +0.000 C 
ATOM     32  C   UNL     1       4.236  -2.374   0.000  0.00  0.00    +0.000 C 
ATOM     33  C   UNL     1       2.808  -1.549   0.000  0.00  0.00    +0.000 C 
ATOM     34  C   UNL     1       4.236  -1.549   0.000  0.00  0.00    +0.000 C 
ATOM     35  C   UNL     1       2.093  -1.137   0.000  0.00  0.00    +0.000 C 
ENDBRANCH  25  34
ENDBRANCH   4  25
TORSDOF 5
