REMARK  Name = 15559736
REMARK  4 active torsions:
REMARK  status: ('A' for Active; 'I' for Inactive)
REMARK    1  A    between atoms: O_2  and  C_19
REMARK    2  A    between atoms: O_2  and  C_21
REMARK    3  A    between atoms: C_18  and  C_20
REMARK    4  A    between atoms: C_22  and  C_26
REMARK                            x       y       z     vdW  Elec       q    Type
REMARK                         _______ _______ _______ _____ _____    ______ ____
ROOT
ATOM      1  O   UNL     1       6.380   1.002   0.000  0.00  0.00    +0.000 OA
ATOM      2  O   UNL     1       4.236  -0.236   0.000  0.00  0.00    +0.000 OA
ATOM      3  O   UNL     1       3.490   0.999   0.000  0.00  0.00    +0.000 OA
ATOM      4  O   UNL     1       6.398   2.678   0.000  0.00  0.00    +0.000 OA
ATOM      5  O   UNL     1       4.941   3.534   0.000  0.00  0.00    +0.000 OA
ATOM      6  C   UNL     1       5.665  -0.236   0.000  0.00  0.00    +0.000 A 
ATOM      7  C   UNL     1       6.380   0.177   0.000  0.00  0.00    +0.000 A 
ATOM      8  C   UNL     1       4.951   0.177   0.000  0.00  0.00    +0.000 A 
ATOM      9  C   UNL     1       4.951   1.002   0.000  0.00  0.00    +0.000 A 
ATOM     10  C   UNL     1       5.665   1.414   0.000  0.00  0.00    +0.000 A 
ATOM     11  C   UNL     1       4.200   1.420   0.000  0.00  0.00    +0.000 A 
ATOM     12  C   UNL     1       5.679   2.273   0.000  0.00  0.00    +0.000 A 
ATOM     13  C   UNL     1       4.194   2.279   0.000  0.00  0.00    +0.000 A 
ATOM     14  C   UNL     1       4.938   2.709   0.000  0.00  0.00    +0.000 A 
ENDROOT
BRANCH   7  18
ATOM     15  O   UNL     1       7.809  -2.298   0.000  0.00  0.00    +0.000 OA
ATOM     16  O   UNL     1       9.238   0.177   0.000  0.00  0.00    +0.000 OA
ATOM     17  O   UNL     1       9.238  -1.473   0.000  0.00  0.00    +0.000 OA
ATOM     18  C   UNL     1       7.094  -0.236   0.000  0.00  0.00    +0.000 A 
ATOM     19  C   UNL     1       7.809   0.177   0.000  0.00  0.00    +0.000 A 
ATOM     20  C   UNL     1       7.094  -1.061   0.000  0.00  0.00    +0.000 A 
ATOM     21  C   UNL     1       7.809  -1.473   0.000  0.00  0.00    +0.000 A 
ATOM     22  C   UNL     1       8.523  -0.236   0.000  0.00  0.00    +0.000 A 
ATOM     23  C   UNL     1       8.523  -1.061   0.000  0.00  0.00    +0.000 A 
ENDBRANCH   7  18
BRANCH   6  24
ATOM     24  O   UNL     1       5.665  -1.061   0.000  0.00  0.00    +0.000 OA
BRANCH  24  33
ATOM     25  O   UNL     1       4.236  -1.061   0.000  0.00  0.00    +0.000 OA
ATOM     26  O   UNL     1       4.236  -3.536   0.000  0.00  0.00    +0.000 OA
ATOM     27  O   UNL     1       2.808  -2.711   0.000  0.00  0.00    +0.000 OA
ATOM     28  O   UNL     1       5.665  -2.711   0.000  0.00  0.00    +0.000 OA
ATOM     29  C   UNL     1       4.236  -2.711   0.000  0.00  0.00    +0.000 C 
ATOM     30  C   UNL     1       3.522  -2.298   0.000  0.00  0.00    +0.000 C 
ATOM     31  C   UNL     1       4.951  -2.298   0.000  0.00  0.00    +0.000 C 
ATOM     32  C   UNL     1       3.522  -1.473   0.000  0.00  0.00    +0.000 C 
ATOM     33  C   UNL     1       4.951  -1.473   0.000  0.00  0.00    +0.000 C 
BRANCH  32  35
ATOM     34  O   UNL     1       2.093  -1.473   0.000  0.00  0.00    +0.000 OA
ATOM     35  C   UNL     1       2.808  -1.061   0.000  0.00  0.00    +0.000 C 
ENDBRANCH  32  35
ENDBRANCH  24  33
ENDBRANCH   6  24
TORSDOF 4
