REMARK  Name = 21672568
REMARK  3 active torsions:
REMARK  status: ('A' for Active; 'I' for Inactive)
REMARK    1  A    between atoms: O_2  and  C_16
REMARK    2  A    between atoms: O_2  and  C_18
REMARK    3  A    between atoms: C_19  and  C_23
REMARK                            x       y       z     vdW  Elec       q    Type
REMARK                         _______ _______ _______ _____ _____    ______ ____
ROOT
ATOM      1  O   UNL     1       5.006  -1.444   0.000  0.00  0.00    +0.000 OA
ATOM      2  O   UNL     1       5.006   1.031   0.000  0.00  0.00    +0.000 OA
ATOM      3  O   UNL     1       3.564   1.060   0.000  0.00  0.00    +0.000 OA
ATOM      4  O   UNL     1       2.094  -1.464   0.000  0.00  0.00    +0.000 OA
ATOM      5  C   UNL     1       5.721  -0.206   0.000  0.00  0.00    +0.000 A 
ATOM      6  C   UNL     1       5.721  -1.031   0.000  0.00  0.00    +0.000 A 
ATOM      7  C   UNL     1       5.006   0.206   0.000  0.00  0.00    +0.000 A 
ATOM      8  C   UNL     1       4.292  -0.206   0.000  0.00  0.00    +0.000 A 
ATOM      9  C   UNL     1       4.292  -1.031   0.000  0.00  0.00    +0.000 A 
ATOM     10  C   UNL     1       3.554   0.235   0.000  0.00  0.00    +0.000 A 
ATOM     11  C   UNL     1       3.554  -1.472   0.000  0.00  0.00    +0.000 A 
ATOM     12  C   UNL     1       2.807  -0.189   0.000  0.00  0.00    +0.000 A 
ATOM     13  C   UNL     1       2.807  -1.048   0.000  0.00  0.00    +0.000 A 
ENDROOT
BRANCH   6  17
ATOM     14  O   UNL     1       8.579  -1.031   0.000  0.00  0.00    +0.000 OA
ATOM     15  O   UNL     1       7.150  -3.506   0.000  0.00  0.00    +0.000 OA
ATOM     16  O   UNL     1       8.579  -2.681   0.000  0.00  0.00    +0.000 OA
ATOM     17  C   UNL     1       6.435  -1.444   0.000  0.00  0.00    +0.000 A 
ATOM     18  C   UNL     1       6.435  -2.269   0.000  0.00  0.00    +0.000 A 
ATOM     19  C   UNL     1       7.150  -1.031   0.000  0.00  0.00    +0.000 A 
ATOM     20  C   UNL     1       7.864  -1.444   0.000  0.00  0.00    +0.000 A 
ATOM     21  C   UNL     1       7.150  -2.681   0.000  0.00  0.00    +0.000 A 
ATOM     22  C   UNL     1       7.864  -2.269   0.000  0.00  0.00    +0.000 A 
ENDBRANCH   6  17
BRANCH   5  23
ATOM     23  O   UNL     1       6.435   0.206   0.000  0.00  0.00    +0.000 OA
BRANCH  23  31
ATOM     24  O   UNL     1       5.721   1.444   0.000  0.00  0.00    +0.000 OA
ATOM     25  O   UNL     1       7.864   2.681   0.000  0.00  0.00    +0.000 OA
ATOM     26  O   UNL     1       7.864   1.031   0.000  0.00  0.00    +0.000 OA
ATOM     27  O   UNL     1       6.435   3.506   0.000  0.00  0.00    +0.000 OA
ATOM     28  C   UNL     1       7.150   2.269   0.000  0.00  0.00    +0.000 C 
ATOM     29  C   UNL     1       7.150   1.444   0.000  0.00  0.00    +0.000 C 
ATOM     30  C   UNL     1       6.435   2.681   0.000  0.00  0.00    +0.000 C 
ATOM     31  C   UNL     1       6.435   1.031   0.000  0.00  0.00    +0.000 C 
ATOM     32  C   UNL     1       5.721   2.269   0.000  0.00  0.00    +0.000 C 
ENDBRANCH  23  31
ENDBRANCH   5  23
TORSDOF 3
