REMARK  Name = 6442291
REMARK  8 active torsions:
REMARK  status: ('A' for Active; 'I' for Inactive)
REMARK    1  A    between atoms: O_2  and  C_16
REMARK    2  A    between atoms: O_2  and  C_21
REMARK    3  A    between atoms: O_3  and  C_18
REMARK    4  A    between atoms: O_3  and  C_20
REMARK    5  A    between atoms: C_17  and  C_19
REMARK    6  A    between atoms: C_21  and  C_27
REMARK    7  A    between atoms: C_22  and  C_26
REMARK    8  A    between atoms: C_32  and  C_37
REMARK                            x       y       z     vdW  Elec       q    Type
REMARK                         _______ _______ _______ _____ _____    ______ ____
ROOT
ATOM      1  O   UNL     1       4.236   0.511   0.000  0.00  0.00    +0.000 OA
ATOM      2  O   UNL     1       4.236  -1.964   0.000  0.00  0.00    +0.000 OA
ATOM      3  O   UNL     1       2.808  -1.139   0.000  0.00  0.00    +0.000 OA
ATOM      4  C   UNL     1       4.236  -1.139   0.000  0.00  0.00    +0.000 C 
ATOM      5  C   UNL     1       3.522  -0.727   0.000  0.00  0.00    +0.000 C 
ATOM      6  C   UNL     1       4.951  -0.727   0.000  0.00  0.00    +0.000 C 
ATOM      7  C   UNL     1       3.522   0.098   0.000  0.00  0.00    +0.000 C 
ATOM      8  C   UNL     1       4.951   0.098   0.000  0.00  0.00    +0.000 C 
ENDROOT
BRANCH   7  10
ATOM      9  O   UNL     1       2.093   0.098   0.000  0.00  0.00    +0.000 OA
ATOM     10  C   UNL     1       2.808   0.511   0.000  0.00  0.00    +0.000 C 
ENDBRANCH   7  10
BRANCH   6  11
ATOM     11  O   UNL     1       5.665  -1.139   0.000  0.00  0.00    +0.000 OA
BRANCH  11  13
ATOM     12  O   UNL     1       4.951  -2.377   0.000  0.00  0.00    +0.000 OA
ATOM     13  C   UNL     1       5.665  -1.964   0.000  0.00  0.00    +0.000 C 
BRANCH  13  14
ATOM     14  C   UNL     1       6.380  -2.377   0.000  0.00  0.00    +0.000 C 
ATOM     15  C   UNL     1       6.380  -3.202   0.000  0.00  0.00    +0.000 C 
BRANCH  15  17
ATOM     16  O   UNL     1       9.238  -4.852   0.000  0.00  0.00    +0.000 OA
ATOM     17  C   UNL     1       7.094  -3.614   0.000  0.00  0.00    +0.000 A 
ATOM     18  C   UNL     1       7.809  -3.202   0.000  0.00  0.00    +0.000 A 
ATOM     19  C   UNL     1       7.094  -4.439   0.000  0.00  0.00    +0.000 A 
ATOM     20  C   UNL     1       8.523  -3.614   0.000  0.00  0.00    +0.000 A 
ATOM     21  C   UNL     1       7.809  -4.852   0.000  0.00  0.00    +0.000 A 
ATOM     22  C   UNL     1       8.523  -4.439   0.000  0.00  0.00    +0.000 A 
ENDBRANCH  15  17
ENDBRANCH  13  14
ENDBRANCH  11  13
ENDBRANCH   6  11
BRANCH   8  23
ATOM     23  O   UNL     1       5.665   0.511   0.000  0.00  0.00    +0.000 OA
BRANCH  23  28
ATOM     24  O   UNL     1       6.380   2.573   0.000  0.00  0.00    +0.000 OA
ATOM     25  O   UNL     1       4.236   1.336   0.000  0.00  0.00    +0.000 OA
ATOM     26  O   UNL     1       3.490   2.571   0.000  0.00  0.00    +0.000 OA
ATOM     27  O   UNL     1       4.941   5.106   0.000  0.00  0.00    +0.000 OA
ATOM     28  C   UNL     1       5.665   1.336   0.000  0.00  0.00    +0.000 A 
ATOM     29  C   UNL     1       6.380   1.748   0.000  0.00  0.00    +0.000 A 
ATOM     30  C   UNL     1       4.951   1.748   0.000  0.00  0.00    +0.000 A 
ATOM     31  C   UNL     1       4.951   2.573   0.000  0.00  0.00    +0.000 A 
ATOM     32  C   UNL     1       5.665   2.986   0.000  0.00  0.00    +0.000 A 
ATOM     33  C   UNL     1       4.200   2.992   0.000  0.00  0.00    +0.000 A 
ATOM     34  C   UNL     1       5.679   3.845   0.000  0.00  0.00    +0.000 A 
ATOM     35  C   UNL     1       4.194   3.851   0.000  0.00  0.00    +0.000 A 
ATOM     36  C   UNL     1       4.938   4.281   0.000  0.00  0.00    +0.000 A 
BRANCH  29  38
ATOM     37  O   UNL     1       9.238   0.098   0.000  0.00  0.00    +0.000 OA
ATOM     38  C   UNL     1       7.094   1.336   0.000  0.00  0.00    +0.000 A 
ATOM     39  C   UNL     1       7.094   0.511   0.000  0.00  0.00    +0.000 A 
ATOM     40  C   UNL     1       7.809   1.748   0.000  0.00  0.00    +0.000 A 
ATOM     41  C   UNL     1       7.809   0.098   0.000  0.00  0.00    +0.000 A 
ATOM     42  C   UNL     1       8.523   1.336   0.000  0.00  0.00    +0.000 A 
ATOM     43  C   UNL     1       8.523   0.511   0.000  0.00  0.00    +0.000 A 
ENDBRANCH  29  38
ENDBRANCH  23  28
ENDBRANCH   8  23
TORSDOF 8
