REMARK  Name = 44259682
REMARK  6 active torsions:
REMARK  status: ('A' for Active; 'I' for Inactive)
REMARK    1  A    between atoms: O_2  and  C_17
REMARK    2  A    between atoms: O_2  and  C_19
REMARK    3  A    between atoms: O_7  and  C_20
REMARK    4  A    between atoms: O_9  and  C_26
REMARK    5  A    between atoms: C_16  and  C_18
REMARK    6  A    between atoms: C_22  and  C_25
REMARK                            x       y       z     vdW  Elec       q    Type
REMARK                         _______ _______ _______ _____ _____    ______ ____
ROOT
ATOM      1  C   UNL     1       5.665  -1.178   0.000  0.00  0.00    +0.000 A 
ATOM      2  C   UNL     1       4.951  -0.765   0.000  0.00  0.00    +0.000 A 
ATOM      3  C   UNL     1       6.380  -0.765   0.000  0.00  0.00    +0.000 A 
ATOM      4  C   UNL     1       5.665   0.472   0.000  0.00  0.00    +0.000 A 
ATOM      5  C   UNL     1       4.951   0.060   0.000  0.00  0.00    +0.000 A 
ATOM      6  C   UNL     1       6.380   0.060   0.000  0.00  0.00    +0.000 A 
ENDROOT
BRANCH   4  11
ATOM      7  O   UNL     1       6.380   1.710   0.000  0.00  0.00    +0.000 OA
ATOM      8  O   UNL     1       4.236   2.947   0.000  0.00  0.00    +0.000 OA
ATOM      9  O   UNL     1       4.933   4.211   0.000  0.00  0.00    +0.000 OA
ATOM     10  O   UNL     1       7.853   4.222   0.000  0.00  0.00    +0.000 OA
ATOM     11  C   UNL     1       5.665   1.297   0.000  0.00  0.00    +0.000 A 
ATOM     12  C   UNL     1       4.951   1.710   0.000  0.00  0.00    +0.000 A 
ATOM     13  C   UNL     1       5.665   2.947   0.000  0.00  0.00    +0.000 A 
ATOM     14  C   UNL     1       6.380   2.535   0.000  0.00  0.00    +0.000 A 
ATOM     15  C   UNL     1       4.951   2.535   0.000  0.00  0.00    +0.000 A 
ATOM     16  C   UNL     1       5.652   3.807   0.000  0.00  0.00    +0.000 A 
ATOM     17  C   UNL     1       7.131   2.953   0.000  0.00  0.00    +0.000 A 
ATOM     18  C   UNL     1       7.137   3.812   0.000  0.00  0.00    +0.000 A 
ATOM     19  C   UNL     1       6.393   4.242   0.000  0.00  0.00    +0.000 A 
BRANCH  12  20
ATOM     20  O   UNL     1       4.236   1.297   0.000  0.00  0.00    +0.000 OA
ATOM     21  C   UNL     1       3.522   1.710   0.000  0.00  0.00    +0.000 C 
ENDBRANCH  12  20
ENDBRANCH   4  11
BRANCH   2  22
ATOM     22  O   UNL     1       4.236  -1.178   0.000  0.00  0.00    +0.000 OA
ATOM     23  C   UNL     1       3.522  -0.765   0.000  0.00  0.00    +0.000 C 
ENDBRANCH   2  22
BRANCH   1  24
ATOM     24  O   UNL     1       5.665  -2.003   0.000  0.00  0.00    +0.000 OA
BRANCH  24  33
ATOM     25  O   UNL     1       4.236  -2.003   0.000  0.00  0.00    +0.000 OA
ATOM     26  O   UNL     1       4.236  -4.478   0.000  0.00  0.00    +0.000 OA
ATOM     27  O   UNL     1       2.808  -3.653   0.000  0.00  0.00    +0.000 OA
ATOM     28  O   UNL     1       5.665  -3.653   0.000  0.00  0.00    +0.000 OA
ATOM     29  C   UNL     1       4.236  -3.653   0.000  0.00  0.00    +0.000 C 
ATOM     30  C   UNL     1       3.522  -3.240   0.000  0.00  0.00    +0.000 C 
ATOM     31  C   UNL     1       4.951  -3.240   0.000  0.00  0.00    +0.000 C 
ATOM     32  C   UNL     1       3.522  -2.415   0.000  0.00  0.00    +0.000 C 
ATOM     33  C   UNL     1       4.951  -2.415   0.000  0.00  0.00    +0.000 C 
BRANCH  32  35
ATOM     34  O   UNL     1       2.093  -2.415   0.000  0.00  0.00    +0.000 OA
ATOM     35  C   UNL     1       2.808  -2.003   0.000  0.00  0.00    +0.000 C 
ENDBRANCH  32  35
ENDBRANCH  24  33
ENDBRANCH   1  24
TORSDOF 6
