REMARK  Name = 11802256
REMARK  8 active torsions:
REMARK  status: ('A' for Active; 'I' for Inactive)
REMARK    1  A    between atoms: O_3  and  C_26
REMARK    2  A    between atoms: O_3  and  C_30
REMARK    3  A    between atoms: O_6  and  C_27
REMARK    4  A    between atoms: O_6  and  C_31
REMARK    5  A    between atoms: O_14  and  C_34
REMARK    6  A    between atoms: C_23  and  C_28
REMARK    7  A    between atoms: C_25  and  C_29
REMARK    8  A    between atoms: C_32  and  C_33
REMARK                            x       y       z     vdW  Elec       q    Type
REMARK                         _______ _______ _______ _____ _____    ______ ____
ROOT
ATOM      1  O   UNL     1       6.380   1.621   0.000  0.00  0.00    +0.000 OA
ATOM      2  O   UNL     1       4.236   0.383   0.000  0.00  0.00    +0.000 OA
ATOM      3  O   UNL     1       3.490   1.618   0.000  0.00  0.00    +0.000 OA
ATOM      4  O   UNL     1       4.941   4.153   0.000  0.00  0.00    +0.000 OA
ATOM      5  C   UNL     1       5.665   0.383   0.000  0.00  0.00    +0.000 A 
ATOM      6  C   UNL     1       6.380   0.795   0.000  0.00  0.00    +0.000 A 
ATOM      7  C   UNL     1       4.951   0.795   0.000  0.00  0.00    +0.000 A 
ATOM      8  C   UNL     1       4.951   1.621   0.000  0.00  0.00    +0.000 A 
ATOM      9  C   UNL     1       5.665   2.033   0.000  0.00  0.00    +0.000 A 
ATOM     10  C   UNL     1       4.200   2.039   0.000  0.00  0.00    +0.000 A 
ATOM     11  C   UNL     1       5.679   2.892   0.000  0.00  0.00    +0.000 A 
ATOM     12  C   UNL     1       4.194   2.898   0.000  0.00  0.00    +0.000 A 
ATOM     13  C   UNL     1       4.938   3.328   0.000  0.00  0.00    +0.000 A 
ENDROOT
BRANCH   6  15
ATOM     14  C   UNL     1       8.523  -0.442   0.000  0.00  0.00    +0.000 A 
ATOM     15  C   UNL     1       7.094   0.383   0.000  0.00  0.00    +0.000 A 
ATOM     16  C   UNL     1       8.523   0.383   0.000  0.00  0.00    +0.000 A 
ATOM     17  C   UNL     1       7.809  -0.855   0.000  0.00  0.00    +0.000 A 
ATOM     18  C   UNL     1       7.809   0.795   0.000  0.00  0.00    +0.000 A 
ATOM     19  C   UNL     1       7.094  -0.442   0.000  0.00  0.00    +0.000 A 
BRANCH  16  20
ATOM     20  O   UNL     1       9.238   0.795   0.000  0.00  0.00    +0.000 OA
ATOM     21  C   UNL     1       9.238   1.621   0.000  0.00  0.00    +0.000 C 
ENDBRANCH  16  20
BRANCH  14  22
ATOM     22  O   UNL     1       9.238  -0.855   0.000  0.00  0.00    +0.000 OA
BRANCH  22  31
ATOM     23  O   UNL     1       9.952  -2.092   0.000  0.00  0.00    +0.000 OA
ATOM     24  O   UNL     1       7.809  -3.329   0.000  0.00  0.00    +0.000 OA
ATOM     25  O   UNL     1       9.238  -4.154   0.000  0.00  0.00    +0.000 OA
ATOM     26  O   UNL     1       7.809  -1.679   0.000  0.00  0.00    +0.000 OA
ATOM     27  C   UNL     1       8.523  -2.917   0.000  0.00  0.00    +0.000 C 
ATOM     28  C   UNL     1       9.238  -3.329   0.000  0.00  0.00    +0.000 C 
ATOM     29  C   UNL     1       8.523  -2.092   0.000  0.00  0.00    +0.000 C 
ATOM     30  C   UNL     1       9.952  -2.917   0.000  0.00  0.00    +0.000 C 
ATOM     31  C   UNL     1       9.238  -1.679   0.000  0.00  0.00    +0.000 C 
BRANCH  30  33
ATOM     32  O   UNL     1      11.381  -2.917   0.000  0.00  0.00    +0.000 OA
ATOM     33  C   UNL     1      10.667  -3.329   0.000  0.00  0.00    +0.000 C 
ENDBRANCH  30  33
ENDBRANCH  22  31
ENDBRANCH  14  22
ENDBRANCH   6  15
BRANCH   5  34
ATOM     34  O   UNL     1       5.665  -0.442   0.000  0.00  0.00    +0.000 OA
BRANCH  34  43
ATOM     35  O   UNL     1       4.236  -0.442   0.000  0.00  0.00    +0.000 OA
ATOM     36  O   UNL     1       4.236  -2.917   0.000  0.00  0.00    +0.000 OA
ATOM     37  O   UNL     1       2.808  -2.092   0.000  0.00  0.00    +0.000 OA
ATOM     38  O   UNL     1       5.665  -2.092   0.000  0.00  0.00    +0.000 OA
ATOM     39  C   UNL     1       4.236  -2.092   0.000  0.00  0.00    +0.000 C 
ATOM     40  C   UNL     1       3.522  -1.679   0.000  0.00  0.00    +0.000 C 
ATOM     41  C   UNL     1       4.951  -1.679   0.000  0.00  0.00    +0.000 C 
ATOM     42  C   UNL     1       3.522  -0.855   0.000  0.00  0.00    +0.000 C 
ATOM     43  C   UNL     1       4.951  -0.855   0.000  0.00  0.00    +0.000 C 
BRANCH  42  45
ATOM     44  O   UNL     1       2.093  -0.855   0.000  0.00  0.00    +0.000 OA
ATOM     45  C   UNL     1       2.808  -0.442   0.000  0.00  0.00    +0.000 C 
ENDBRANCH  42  45
ENDBRANCH  34  43
ENDBRANCH   5  34
TORSDOF 8
