REMARK  Name = 44259303
REMARK  12 active torsions:
REMARK  status: ('A' for Active; 'I' for Inactive)
REMARK    1  A    between atoms: O_1  and  C_21
REMARK    2  A    between atoms: O_1  and  C_23
REMARK    3  A    between atoms: O_4  and  C_24
REMARK    4  A    between atoms: O_4  and  C_34
REMARK    5  A    between atoms: O_6  and  C_27
REMARK    6  A    between atoms: O_6  and  C_33
REMARK    7  A    between atoms: O_19  and  C_54
REMARK    8  A    between atoms: C_29  and  C_31
REMARK    9  A    between atoms: C_30  and  C_32
REMARK   10  A    between atoms: C_34  and  C_37
REMARK   11  A    between atoms: C_35  and  C_39
REMARK   12  A    between atoms: C_42  and  C_48
REMARK                            x       y       z     vdW  Elec       q    Type
REMARK                         _______ _______ _______ _____ _____    ______ ____
ROOT
ATOM      1  O   UNL     1       4.236   0.177   0.000  0.00  0.00    +0.000 OA
ATOM      2  O   UNL     1       4.236  -2.298   0.000  0.00  0.00    +0.000 OA
ATOM      3  O   UNL     1       2.808  -1.473   0.000  0.00  0.00    +0.000 OA
ATOM      4  C   UNL     1       4.951  -1.061   0.000  0.00  0.00    +0.000 C 
ATOM      5  C   UNL     1       4.236  -1.473   0.000  0.00  0.00    +0.000 C 
ATOM      6  C   UNL     1       3.522  -1.061   0.000  0.00  0.00    +0.000 C 
ATOM      7  C   UNL     1       4.951  -0.236   0.000  0.00  0.00    +0.000 C 
ATOM      8  C   UNL     1       3.522  -0.236   0.000  0.00  0.00    +0.000 C 
ENDROOT
BRANCH   8  10
ATOM      9  O   UNL     1       2.093  -0.236   0.000  0.00  0.00    +0.000 OA
ATOM     10  C   UNL     1       2.808   0.177   0.000  0.00  0.00    +0.000 C 
ENDBRANCH   8  10
BRANCH   4  11
ATOM     11  O   UNL     1       5.665  -1.473   0.000  0.00  0.00    +0.000 OA
BRANCH  11  15
ATOM     12  O   UNL     1       4.951  -2.711   0.000  0.00  0.00    +0.000 OA
ATOM     13  O   UNL     1       7.094  -3.948   0.000  0.00  0.00    +0.000 OA
ATOM     14  O   UNL     1       5.665  -4.773   0.000  0.00  0.00    +0.000 OA
ATOM     15  C   UNL     1       5.665  -2.298   0.000  0.00  0.00    +0.000 C 
ATOM     16  C   UNL     1       6.380  -2.711   0.000  0.00  0.00    +0.000 C 
ATOM     17  C   UNL     1       6.380  -3.536   0.000  0.00  0.00    +0.000 C 
ATOM     18  C   UNL     1       5.665  -3.948   0.000  0.00  0.00    +0.000 C 
ATOM     19  C   UNL     1       4.951  -3.536   0.000  0.00  0.00    +0.000 C 
BRANCH  19  21
ATOM     20  O   UNL     1       4.236  -4.773   0.000  0.00  0.00    +0.000 OA
ATOM     21  C   UNL     1       4.236  -3.948   0.000  0.00  0.00    +0.000 C 
ENDBRANCH  19  21
BRANCH  16  22
ATOM     22  O   UNL     1       7.094  -2.298   0.000  0.00  0.00    +0.000 OA
BRANCH  22  24
ATOM     23  O   UNL     1       7.809  -3.536   0.000  0.00  0.00    +0.000 OA
ATOM     24  C   UNL     1       7.809  -2.711   0.000  0.00  0.00    +0.000 C 
BRANCH  24  25
ATOM     25  C   UNL     1       8.523  -2.298   0.000  0.00  0.00    +0.000 C 
ATOM     26  C   UNL     1       9.238  -2.711   0.000  0.00  0.00    +0.000 C 
BRANCH  26  28
ATOM     27  O   UNL     1      12.096  -1.061   0.000  0.00  0.00    +0.000 OA
ATOM     28  C   UNL     1       9.952  -2.298   0.000  0.00  0.00    +0.000 A 
ATOM     29  C   UNL     1      10.667  -2.711   0.000  0.00  0.00    +0.000 A 
ATOM     30  C   UNL     1       9.952  -1.473   0.000  0.00  0.00    +0.000 A 
ATOM     31  C   UNL     1      11.381  -2.298   0.000  0.00  0.00    +0.000 A 
ATOM     32  C   UNL     1      10.667  -1.061   0.000  0.00  0.00    +0.000 A 
ATOM     33  C   UNL     1      11.381  -1.473   0.000  0.00  0.00    +0.000 A 
BRANCH  31  34
ATOM     34  O   UNL     1      12.096  -2.711   0.000  0.00  0.00    +0.000 OA
ATOM     35  C   UNL     1      12.096  -3.536   0.000  0.00  0.00    +0.000 C 
ENDBRANCH  31  34
ENDBRANCH  26  28
ENDBRANCH  24  25
ENDBRANCH  22  24
ENDBRANCH  16  22
ENDBRANCH  11  15
ENDBRANCH   4  11
BRANCH   7  36
ATOM     36  O   UNL     1       5.665   0.177   0.000  0.00  0.00    +0.000 OA
BRANCH  36  41
ATOM     37  O   UNL     1       6.380   2.239   0.000  0.00  0.00    +0.000 OA
ATOM     38  O   UNL     1       4.236   1.002   0.000  0.00  0.00    +0.000 OA
ATOM     39  O   UNL     1       3.490   2.237   0.000  0.00  0.00    +0.000 OA
ATOM     40  O   UNL     1       4.941   4.771   0.000  0.00  0.00    +0.000 OA
ATOM     41  C   UNL     1       5.665   1.002   0.000  0.00  0.00    +0.000 A 
ATOM     42  C   UNL     1       6.380   1.414   0.000  0.00  0.00    +0.000 A 
ATOM     43  C   UNL     1       4.951   1.414   0.000  0.00  0.00    +0.000 A 
ATOM     44  C   UNL     1       4.951   2.239   0.000  0.00  0.00    +0.000 A 
ATOM     45  C   UNL     1       5.665   2.652   0.000  0.00  0.00    +0.000 A 
ATOM     46  C   UNL     1       4.200   2.658   0.000  0.00  0.00    +0.000 A 
ATOM     47  C   UNL     1       5.679   3.511   0.000  0.00  0.00    +0.000 A 
ATOM     48  C   UNL     1       4.194   3.517   0.000  0.00  0.00    +0.000 A 
ATOM     49  C   UNL     1       4.938   3.946   0.000  0.00  0.00    +0.000 A 
BRANCH  42  52
ATOM     50  O   UNL     1       9.238   1.414   0.000  0.00  0.00    +0.000 OA
ATOM     51  O   UNL     1       9.238  -0.236   0.000  0.00  0.00    +0.000 OA
ATOM     52  C   UNL     1       7.094   1.002   0.000  0.00  0.00    +0.000 A 
ATOM     53  C   UNL     1       7.809   1.414   0.000  0.00  0.00    +0.000 A 
ATOM     54  C   UNL     1       7.094   0.177   0.000  0.00  0.00    +0.000 A 
ATOM     55  C   UNL     1       8.523   1.002   0.000  0.00  0.00    +0.000 A 
ATOM     56  C   UNL     1       7.809  -0.236   0.000  0.00  0.00    +0.000 A 
ATOM     57  C   UNL     1       8.523   0.177   0.000  0.00  0.00    +0.000 A 
ENDBRANCH  42  52
ENDBRANCH  36  41
ENDBRANCH   7  36
TORSDOF 12
