REMARK  Name = 44256747
REMARK  10 active torsions:
REMARK  status: ('A' for Active; 'I' for Inactive)
REMARK    1  A    between atoms: O_1  and  C_19
REMARK    2  A    between atoms: O_1  and  C_24
REMARK    3  A    between atoms: O_5  and  C_23
REMARK    4  A    between atoms: O_5  and  C_30
REMARK    5  A    between atoms: O_9  and  C_28
REMARK    6  A    between atoms: O_9  and  C_33
REMARK    7  A    between atoms: C_22  and  C_28
REMARK    8  A    between atoms: C_31  and  C_35
REMARK    9  A    between atoms: C_33  and  C_38
REMARK   10  A    between atoms: C_46  and  C_48
REMARK                            x       y       z     vdW  Elec       q    Type
REMARK                         _______ _______ _______ _____ _____    ______ ____
ROOT
ATOM      1  O   UNL     1       8.795   0.177   0.000  0.00  0.00    +0.000 OA
ATOM      2  O   UNL     1       8.795  -2.298   0.000  0.00  0.00    +0.000 OA
ATOM      3  O   UNL     1       7.366  -1.473   0.000  0.00  0.00    +0.000 OA
ATOM      4  C   UNL     1       9.509  -1.061   0.000  0.00  0.00    +0.000 C 
ATOM      5  C   UNL     1       8.795  -1.473   0.000  0.00  0.00    +0.000 C 
ATOM      6  C   UNL     1       8.080  -1.061   0.000  0.00  0.00    +0.000 C 
ATOM      7  C   UNL     1       8.080  -0.236   0.000  0.00  0.00    +0.000 C 
ATOM      8  C   UNL     1       9.509  -0.236   0.000  0.00  0.00    +0.000 C 
ENDROOT
BRANCH   4   9
ATOM      9  O   UNL     1      10.224  -1.473   0.000  0.00  0.00    +0.000 OA
BRANCH   9  14
ATOM     10  O   UNL     1       9.509  -2.711   0.000  0.00  0.00    +0.000 OA
ATOM     11  O   UNL     1      11.653  -2.298   0.000  0.00  0.00    +0.000 OA
ATOM     12  O   UNL     1      11.653  -3.948   0.000  0.00  0.00    +0.000 OA
ATOM     13  O   UNL     1      10.224  -4.773   0.000  0.00  0.00    +0.000 OA
ATOM     14  C   UNL     1      10.224  -2.298   0.000  0.00  0.00    +0.000 C 
ATOM     15  C   UNL     1      10.938  -2.711   0.000  0.00  0.00    +0.000 C 
ATOM     16  C   UNL     1      10.938  -3.536   0.000  0.00  0.00    +0.000 C 
ATOM     17  C   UNL     1      10.224  -3.948   0.000  0.00  0.00    +0.000 C 
ATOM     18  C   UNL     1       9.509  -3.536   0.000  0.00  0.00    +0.000 C 
ENDBRANCH   9  14
ENDBRANCH   4   9
BRANCH   8  19
ATOM     19  O   UNL     1      10.224   0.177   0.000  0.00  0.00    +0.000 OA
BRANCH  19  23
ATOM     20  O   UNL     1      10.938   2.239   0.000  0.00  0.00    +0.000 OA
ATOM     21  O   UNL     1       8.049   2.237   0.000  0.00  0.00    +0.000 OA
ATOM     22  O   UNL     1       9.499   4.771   0.000  0.00  0.00    +0.000 OA
ATOM     23  C   UNL     1      10.224   1.002   0.000  0.00  0.00    +0.000 A 
ATOM     24  C   UNL     1      10.938   1.414   0.000  0.00  0.00    +0.000 A 
ATOM     25  C   UNL     1       9.509   1.414   0.000  0.00  0.00    +0.000 A 
ATOM     26  C   UNL     1       9.509   2.239   0.000  0.00  0.00    +0.000 A 
ATOM     27  C   UNL     1      10.224   2.652   0.000  0.00  0.00    +0.000 A 
ATOM     28  C   UNL     1       8.758   2.658   0.000  0.00  0.00    +0.000 A 
ATOM     29  C   UNL     1      10.237   3.511   0.000  0.00  0.00    +0.000 A 
ATOM     30  C   UNL     1       8.752   3.517   0.000  0.00  0.00    +0.000 A 
ATOM     31  C   UNL     1       9.496   3.946   0.000  0.00  0.00    +0.000 A 
BRANCH  24  34
ATOM     32  O   UNL     1      13.796   1.414   0.000  0.00  0.00    +0.000 OA
ATOM     33  O   UNL     1      13.796  -0.236   0.000  0.00  0.00    +0.000 OA
ATOM     34  C   UNL     1      11.653   1.002   0.000  0.00  0.00    +0.000 A 
ATOM     35  C   UNL     1      12.367   1.414   0.000  0.00  0.00    +0.000 A 
ATOM     36  C   UNL     1      11.653   0.177   0.000  0.00  0.00    +0.000 A 
ATOM     37  C   UNL     1      13.082   1.002   0.000  0.00  0.00    +0.000 A 
ATOM     38  C   UNL     1      12.367  -0.236   0.000  0.00  0.00    +0.000 A 
ATOM     39  C   UNL     1      13.082   0.177   0.000  0.00  0.00    +0.000 A 
ENDBRANCH  24  34
ENDBRANCH  19  23
ENDBRANCH   8  19
BRANCH   7  40
ATOM     40  C   UNL     1       7.366   0.177   0.000  0.00  0.00    +0.000 C 
BRANCH  40  41
ATOM     41  O   UNL     1       6.651  -0.236   0.000  0.00  0.00    +0.000 OA
BRANCH  41  43
ATOM     42  O   UNL     1       5.937   1.002   0.000  0.00  0.00    +0.000 OA
ATOM     43  C   UNL     1       5.937   0.177   0.000  0.00  0.00    +0.000 C 
BRANCH  43  44
ATOM     44  C   UNL     1       5.222  -0.236   0.000  0.00  0.00    +0.000 C 
ATOM     45  C   UNL     1       4.508   0.177   0.000  0.00  0.00    +0.000 C 
BRANCH  45  48
ATOM     46  O   UNL     1       1.650   0.177   0.000  0.00  0.00    +0.000 OA
ATOM     47  O   UNL     1       1.650  -1.473   0.000  0.00  0.00    +0.000 OA
ATOM     48  C   UNL     1       3.793  -0.236   0.000  0.00  0.00    +0.000 A 
ATOM     49  C   UNL     1       3.079   0.177   0.000  0.00  0.00    +0.000 A 
ATOM     50  C   UNL     1       3.793  -1.061   0.000  0.00  0.00    +0.000 A 
ATOM     51  C   UNL     1       2.364  -0.236   0.000  0.00  0.00    +0.000 A 
ATOM     52  C   UNL     1       3.079  -1.473   0.000  0.00  0.00    +0.000 A 
ATOM     53  C   UNL     1       2.364  -1.061   0.000  0.00  0.00    +0.000 A 
ENDBRANCH  45  48
ENDBRANCH  43  44
ENDBRANCH  41  43
ENDBRANCH  40  41
ENDBRANCH   7  40
TORSDOF 10
