REMARK  Name = 44259480
REMARK  11 active torsions:
REMARK  status: ('A' for Active; 'I' for Inactive)
REMARK    1  A    between atoms: O_4  and  C_36
REMARK    2  A    between atoms: O_4  and  C_42
REMARK    3  A    between atoms: O_5  and  C_38
REMARK    4  A    between atoms: O_5  and  C_43
REMARK    5  A    between atoms: O_8  and  C_37
REMARK    6  A    between atoms: O_8  and  C_45
REMARK    7  A    between atoms: O_23  and  C_56
REMARK    8  A    between atoms: C_27  and  C_39
REMARK    9  A    between atoms: C_34  and  C_40
REMARK   10  A    between atoms: C_35  and  C_41
REMARK   11  A    between atoms: C_44  and  C_48
REMARK                            x       y       z     vdW  Elec       q    Type
REMARK                         _______ _______ _______ _____ _____    ______ ____
ROOT
ATOM      1  O   UNL     1       6.389  -0.570   0.000  0.00  0.00    +0.000 OA
ATOM      2  O   UNL     1       4.245  -1.808   0.000  0.00  0.00    +0.000 OA
ATOM      3  O   UNL     1       3.499  -0.573   0.000  0.00  0.00    +0.000 OA
ATOM      4  C   UNL     1       5.674  -1.808   0.000  0.00  0.00    +0.000 A 
ATOM      5  C   UNL     1       4.947   1.137   0.000  0.00  0.00    +0.000 A 
ATOM      6  C   UNL     1       6.389  -1.395   0.000  0.00  0.00    +0.000 A 
ATOM      7  C   UNL     1       4.960  -0.570   0.000  0.00  0.00    +0.000 A 
ATOM      8  C   UNL     1       4.960  -1.395   0.000  0.00  0.00    +0.000 A 
ATOM      9  C   UNL     1       5.674  -0.158   0.000  0.00  0.00    +0.000 A 
ATOM     10  C   UNL     1       5.688   0.701   0.000  0.00  0.00    +0.000 A 
ATOM     11  C   UNL     1       4.202   0.707   0.000  0.00  0.00    +0.000 A 
ATOM     12  C   UNL     1       4.209  -0.152   0.000  0.00  0.00    +0.000 A 
ENDROOT
BRANCH   6  15
ATOM     13  O   UNL     1       9.247  -3.045   0.000  0.00  0.00    +0.000 OA
ATOM     14  C   UNL     1       8.532  -1.808   0.000  0.00  0.00    +0.000 A 
ATOM     15  C   UNL     1       7.103  -1.808   0.000  0.00  0.00    +0.000 A 
ATOM     16  C   UNL     1       7.818  -1.395   0.000  0.00  0.00    +0.000 A 
ATOM     17  C   UNL     1       8.532  -2.633   0.000  0.00  0.00    +0.000 A 
ATOM     18  C   UNL     1       7.103  -2.633   0.000  0.00  0.00    +0.000 A 
ATOM     19  C   UNL     1       7.818  -3.045   0.000  0.00  0.00    +0.000 A 
BRANCH  19  20
ATOM     20  O   UNL     1       7.818  -3.870   0.000  0.00  0.00    +0.000 OA
ATOM     21  C   UNL     1       7.103  -4.283   0.000  0.00  0.00    +0.000 C 
ENDBRANCH  19  20
BRANCH  14  22
ATOM     22  O   UNL     1       9.247  -1.395   0.000  0.00  0.00    +0.000 OA
BRANCH  22  31
ATOM     23  O   UNL     1       9.961  -0.158   0.000  0.00  0.00    +0.000 OA
ATOM     24  O   UNL     1       7.818   1.080   0.000  0.00  0.00    +0.000 OA
ATOM     25  O   UNL     1       9.247   1.905   0.000  0.00  0.00    +0.000 OA
ATOM     26  O   UNL     1       7.818  -0.570   0.000  0.00  0.00    +0.000 OA
ATOM     27  C   UNL     1       8.532   0.667   0.000  0.00  0.00    +0.000 C 
ATOM     28  C   UNL     1       9.247   1.080   0.000  0.00  0.00    +0.000 C 
ATOM     29  C   UNL     1       8.532  -0.158   0.000  0.00  0.00    +0.000 C 
ATOM     30  C   UNL     1       9.961   0.667   0.000  0.00  0.00    +0.000 C 
ATOM     31  C   UNL     1       9.247  -0.570   0.000  0.00  0.00    +0.000 C 
BRANCH  30  33
ATOM     32  O   UNL     1      11.390   0.667   0.000  0.00  0.00    +0.000 OA
ATOM     33  C   UNL     1      10.676   1.080   0.000  0.00  0.00    +0.000 C 
ENDBRANCH  30  33
ENDBRANCH  22  31
ENDBRANCH  14  22
ENDBRANCH   6  15
BRANCH   4  34
ATOM     34  O   UNL     1       5.674  -2.633   0.000  0.00  0.00    +0.000 OA
BRANCH  34  43
ATOM     35  O   UNL     1       4.245  -2.633   0.000  0.00  0.00    +0.000 OA
ATOM     36  O   UNL     1       4.245  -5.108   0.000  0.00  0.00    +0.000 OA
ATOM     37  O   UNL     1       2.816  -4.283   0.000  0.00  0.00    +0.000 OA
ATOM     38  O   UNL     1       5.674  -4.283   0.000  0.00  0.00    +0.000 OA
ATOM     39  C   UNL     1       4.245  -4.283   0.000  0.00  0.00    +0.000 C 
ATOM     40  C   UNL     1       3.531  -3.870   0.000  0.00  0.00    +0.000 C 
ATOM     41  C   UNL     1       4.960  -3.870   0.000  0.00  0.00    +0.000 C 
ATOM     42  C   UNL     1       3.531  -3.045   0.000  0.00  0.00    +0.000 C 
ATOM     43  C   UNL     1       4.960  -3.045   0.000  0.00  0.00    +0.000 C 
BRANCH  42  45
ATOM     44  O   UNL     1       2.102  -3.045   0.000  0.00  0.00    +0.000 OA
ATOM     45  C   UNL     1       2.816  -2.633   0.000  0.00  0.00    +0.000 C 
ENDBRANCH  42  45
ENDBRANCH  34  43
ENDBRANCH   4  34
BRANCH   5  46
ATOM     46  O   UNL     1       4.950   1.962   0.000  0.00  0.00    +0.000 OA
BRANCH  46  55
ATOM     47  O   UNL     1       4.240   3.202   0.000  0.00  0.00    +0.000 OA
ATOM     48  O   UNL     1       2.092   1.973   0.000  0.00  0.00    +0.000 OA
ATOM     49  O   UNL     1       2.098   3.623   0.000  0.00  0.00    +0.000 OA
ATOM     50  O   UNL     1       3.518   1.142   0.000  0.00  0.00    +0.000 OA
ATOM     51  C   UNL     1       2.808   2.383   0.000  0.00  0.00    +0.000 C 
ATOM     52  C   UNL     1       2.811   3.208   0.000  0.00  0.00    +0.000 C 
ATOM     53  C   UNL     1       3.521   1.967   0.000  0.00  0.00    +0.000 C 
ATOM     54  C   UNL     1       3.527   3.617   0.000  0.00  0.00    +0.000 C 
ATOM     55  C   UNL     1       4.237   2.377   0.000  0.00  0.00    +0.000 C 
BRANCH  54  57
ATOM     56  O   UNL     1       4.247   4.852   0.000  0.00  0.00    +0.000 OA
ATOM     57  C   UNL     1       3.530   4.442   0.000  0.00  0.00    +0.000 C 
ENDBRANCH  54  57
ENDBRANCH  46  55
ENDBRANCH   5  46
TORSDOF 11
