REMARK  Name = 44259981
REMARK  10 active torsions:
REMARK  status: ('A' for Active; 'I' for Inactive)
REMARK    1  A    between atoms: O_1  and  C_24
REMARK    2  A    between atoms: O_1  and  C_27
REMARK    3  A    between atoms: O_4  and  C_28
REMARK    4  A    between atoms: O_4  and  C_41
REMARK    5  A    between atoms: O_12  and  C_40
REMARK    6  A    between atoms: O_12  and  C_46
REMARK    7  A    between atoms: C_30  and  C_34
REMARK    8  A    between atoms: C_33  and  C_35
REMARK    9  A    between atoms: C_39  and  C_42
REMARK   10  A    between atoms: C_43  and  C_48
REMARK                            x       y       z     vdW  Elec       q    Type
REMARK                         _______ _______ _______ _____ _____    ______ ____
ROOT
ATOM      1  O   UNL     1       6.380   1.008   0.000  0.00  0.00    +0.000 OA
ATOM      2  O   UNL     1       4.236  -0.230   0.000  0.00  0.00    +0.000 OA
ATOM      3  O   UNL     1       4.941   3.540   0.000  0.00  0.00    +0.000 OA
ATOM      4  O   UNL     1       3.490   1.005   0.000  0.00  0.00    +0.000 OA
ATOM      5  C   UNL     1       5.665  -0.230   0.000  0.00  0.00    +0.000 A 
ATOM      6  C   UNL     1       6.380   0.183   0.000  0.00  0.00    +0.000 A 
ATOM      7  C   UNL     1       4.951   0.183   0.000  0.00  0.00    +0.000 A 
ATOM      8  C   UNL     1       5.665   1.420   0.000  0.00  0.00    +0.000 A 
ATOM      9  C   UNL     1       5.679   2.279   0.000  0.00  0.00    +0.000 A 
ATOM     10  C   UNL     1       4.951   1.008   0.000  0.00  0.00    +0.000 A 
ATOM     11  C   UNL     1       4.938   2.715   0.000  0.00  0.00    +0.000 A 
ATOM     12  C   UNL     1       4.200   1.426   0.000  0.00  0.00    +0.000 A 
ATOM     13  C   UNL     1       4.194   2.285   0.000  0.00  0.00    +0.000 A 
ENDROOT
BRANCH   6  16
ATOM     14  O   UNL     1       9.238   0.183   0.000  0.00  0.00    +0.000 OA
ATOM     15  O   UNL     1       9.238  -1.467   0.000  0.00  0.00    +0.000 OA
ATOM     16  C   UNL     1       7.094  -0.230   0.000  0.00  0.00    +0.000 A 
ATOM     17  C   UNL     1       7.809   0.183   0.000  0.00  0.00    +0.000 A 
ATOM     18  C   UNL     1       7.094  -1.055   0.000  0.00  0.00    +0.000 A 
ATOM     19  C   UNL     1       8.523  -0.230   0.000  0.00  0.00    +0.000 A 
ATOM     20  C   UNL     1       7.809  -1.467   0.000  0.00  0.00    +0.000 A 
ATOM     21  C   UNL     1       8.523  -1.055   0.000  0.00  0.00    +0.000 A 
ENDBRANCH   6  16
BRANCH   5  22
ATOM     22  O   UNL     1       5.665  -1.055   0.000  0.00  0.00    +0.000 OA
BRANCH  22  29
ATOM     23  O   UNL     1       4.236  -1.055   0.000  0.00  0.00    +0.000 OA
ATOM     24  O   UNL     1       4.236  -3.530   0.000  0.00  0.00    +0.000 OA
ATOM     25  O   UNL     1       2.808  -2.705   0.000  0.00  0.00    +0.000 OA
ATOM     26  C   UNL     1       4.951  -2.292   0.000  0.00  0.00    +0.000 C 
ATOM     27  C   UNL     1       4.236  -2.705   0.000  0.00  0.00    +0.000 C 
ATOM     28  C   UNL     1       3.522  -2.292   0.000  0.00  0.00    +0.000 C 
ATOM     29  C   UNL     1       4.951  -1.467   0.000  0.00  0.00    +0.000 C 
ATOM     30  C   UNL     1       3.522  -1.467   0.000  0.00  0.00    +0.000 C 
BRANCH  30  32
ATOM     31  O   UNL     1       2.093  -1.467   0.000  0.00  0.00    +0.000 OA
ATOM     32  C   UNL     1       2.808  -1.055   0.000  0.00  0.00    +0.000 C 
ENDBRANCH  30  32
BRANCH  26  33
ATOM     33  O   UNL     1       5.665  -2.705   0.000  0.00  0.00    +0.000 OA
BRANCH  33  38
ATOM     34  O   UNL     1       4.951  -3.942   0.000  0.00  0.00    +0.000 OA
ATOM     35  O   UNL     1       7.094  -3.530   0.000  0.00  0.00    +0.000 OA
ATOM     36  O   UNL     1       7.094  -5.180   0.000  0.00  0.00    +0.000 OA
ATOM     37  O   UNL     1       5.665  -6.005   0.000  0.00  0.00    +0.000 OA
ATOM     38  C   UNL     1       5.665  -3.530   0.000  0.00  0.00    +0.000 C 
ATOM     39  C   UNL     1       6.380  -3.942   0.000  0.00  0.00    +0.000 C 
ATOM     40  C   UNL     1       6.380  -4.767   0.000  0.00  0.00    +0.000 C 
ATOM     41  C   UNL     1       5.665  -5.180   0.000  0.00  0.00    +0.000 C 
ATOM     42  C   UNL     1       4.951  -4.767   0.000  0.00  0.00    +0.000 C 
BRANCH  42  44
ATOM     43  O   UNL     1       3.522  -4.767   0.000  0.00  0.00    +0.000 OA
ATOM     44  C   UNL     1       4.236  -5.180   0.000  0.00  0.00    +0.000 C 
ENDBRANCH  42  44
ENDBRANCH  33  38
ENDBRANCH  26  33
ENDBRANCH  22  29
ENDBRANCH   5  22
BRANCH   9  45
ATOM     45  O   UNL     1       6.398   2.684   0.000  0.00  0.00    +0.000 OA
BRANCH  45  54
ATOM     46  O   UNL     1       5.698   3.929   0.000  0.00  0.00    +0.000 OA
ATOM     47  O   UNL     1       7.855   5.142   0.000  0.00  0.00    +0.000 OA
ATOM     48  O   UNL     1       6.436   5.983   0.000  0.00  0.00    +0.000 OA
ATOM     49  O   UNL     1       7.836   3.492   0.000  0.00  0.00    +0.000 OA
ATOM     50  C   UNL     1       7.136   4.738   0.000  0.00  0.00    +0.000 C 
ATOM     51  C   UNL     1       6.426   5.158   0.000  0.00  0.00    +0.000 C 
ATOM     52  C   UNL     1       7.127   3.913   0.000  0.00  0.00    +0.000 C 
ATOM     53  C   UNL     1       5.707   4.754   0.000  0.00  0.00    +0.000 C 
ATOM     54  C   UNL     1       6.407   3.509   0.000  0.00  0.00    +0.000 C 
BRANCH  53  56
ATOM     55  O   UNL     1       5.007   6.000   0.000  0.00  0.00    +0.000 OA
ATOM     56  C   UNL     1       4.997   5.175   0.000  0.00  0.00    +0.000 C 
ENDBRANCH  53  56
ENDBRANCH  45  54
ENDBRANCH   9  45
TORSDOF 10
