REMARK  Name = 71308234
REMARK  10 active torsions:
REMARK  status: ('A' for Active; 'I' for Inactive)
REMARK    1  A    between atoms: O_2  and  C_19
REMARK    2  A    between atoms: O_2  and  C_21
REMARK    3  A    between atoms: O_6  and  C_20
REMARK    4  A    between atoms: O_6  and  C_25
REMARK    5  A    between atoms: O_10  and  C_35
REMARK    6  A    between atoms: O_11  and  C_36
REMARK    7  A    between atoms: C_17  and  C_20
REMARK    8  A    between atoms: C_22  and  C_26
REMARK    9  A    between atoms: C_25  and  C_32
REMARK   10  A    between atoms: C_38  and  C_39
REMARK                            x       y       z     vdW  Elec       q    Type
REMARK                         _______ _______ _______ _____ _____    ______ ____
ROOT
ATOM      1  O   UNL     1      10.667  -1.061   0.000  0.00  0.00    +0.000 OA
ENDROOT
BRANCH   1   5
ATOM      2  O   UNL     1      11.381   1.002   0.000  0.00  0.00    +0.000 OA
ATOM      3  O   UNL     1       8.492   0.999   0.000  0.00  0.00    +0.000 OA
ATOM      4  O   UNL     1       9.942   3.534   0.000  0.00  0.00    +0.000 OA
ATOM      5  C   UNL     1      10.667  -0.236   0.000  0.00  0.00    +0.000 A 
ATOM      6  C   UNL     1      11.381   0.177   0.000  0.00  0.00    +0.000 A 
ATOM      7  C   UNL     1       9.952   0.177   0.000  0.00  0.00    +0.000 A 
ATOM      8  C   UNL     1       9.952   1.002   0.000  0.00  0.00    +0.000 A 
ATOM      9  C   UNL     1      10.667   1.414   0.000  0.00  0.00    +0.000 A 
ATOM     10  C   UNL     1       9.201   1.420   0.000  0.00  0.00    +0.000 A 
ATOM     11  C   UNL     1      10.680   2.273   0.000  0.00  0.00    +0.000 A 
ATOM     12  C   UNL     1       9.195   2.279   0.000  0.00  0.00    +0.000 A 
ATOM     13  C   UNL     1       9.939   2.709   0.000  0.00  0.00    +0.000 A 
BRANCH   6  15
ATOM     14  O   UNL     1      14.239  -1.473   0.000  0.00  0.00    +0.000 OA
ATOM     15  C   UNL     1      12.096  -0.236   0.000  0.00  0.00    +0.000 A 
ATOM     16  C   UNL     1      12.096  -1.061   0.000  0.00  0.00    +0.000 A 
ATOM     17  C   UNL     1      12.810   0.177   0.000  0.00  0.00    +0.000 A 
ATOM     18  C   UNL     1      13.524  -0.236   0.000  0.00  0.00    +0.000 A 
ATOM     19  C   UNL     1      12.810  -1.473   0.000  0.00  0.00    +0.000 A 
ATOM     20  C   UNL     1      13.524  -1.061   0.000  0.00  0.00    +0.000 A 
BRANCH  18  21
ATOM     21  O   UNL     1      14.239   0.177   0.000  0.00  0.00    +0.000 OA
ATOM     22  C   UNL     1      14.239   1.002   0.000  0.00  0.00    +0.000 C 
ENDBRANCH  18  21
BRANCH  19  23
ATOM     23  O   UNL     1      12.810  -2.298   0.000  0.00  0.00    +0.000 OA
ATOM     24  C   UNL     1      13.524  -2.711   0.000  0.00  0.00    +0.000 C 
ENDBRANCH  19  23
ENDBRANCH   6  15
ENDBRANCH   1   5
BRANCH   1  33
ATOM     25  O   UNL     1       9.238  -1.061   0.000  0.00  0.00    +0.000 OA
ATOM     26  O   UNL     1       7.809  -2.711   0.000  0.00  0.00    +0.000 OA
ATOM     27  O   UNL     1       9.238  -3.536   0.000  0.00  0.00    +0.000 OA
ATOM     28  O   UNL     1      10.667  -2.711   0.000  0.00  0.00    +0.000 OA
ATOM     29  C   UNL     1       8.523  -2.298   0.000  0.00  0.00    +0.000 C 
ATOM     30  C   UNL     1       9.238  -2.711   0.000  0.00  0.00    +0.000 C 
ATOM     31  C   UNL     1       8.523  -1.473   0.000  0.00  0.00    +0.000 C 
ATOM     32  C   UNL     1       9.952  -2.298   0.000  0.00  0.00    +0.000 C 
ATOM     33  C   UNL     1       9.952  -1.473   0.000  0.00  0.00    +0.000 C 
BRANCH  31  34
ATOM     34  C   UNL     1       7.809  -1.061   0.000  0.00  0.00    +0.000 C 
BRANCH  34  35
ATOM     35  O   UNL     1       7.094  -1.473   0.000  0.00  0.00    +0.000 OA
BRANCH  35  37
ATOM     36  O   UNL     1       6.380  -0.236   0.000  0.00  0.00    +0.000 OA
ATOM     37  C   UNL     1       6.380  -1.061   0.000  0.00  0.00    +0.000 C 
BRANCH  37  38
ATOM     38  C   UNL     1       5.665  -1.473   0.000  0.00  0.00    +0.000 C 
ATOM     39  C   UNL     1       4.951  -1.061   0.000  0.00  0.00    +0.000 C 
BRANCH  39  41
ATOM     40  O   UNL     1       2.093  -2.711   0.000  0.00  0.00    +0.000 OA
ATOM     41  C   UNL     1       4.236  -1.473   0.000  0.00  0.00    +0.000 A 
ATOM     42  C   UNL     1       4.236  -2.298   0.000  0.00  0.00    +0.000 A 
ATOM     43  C   UNL     1       3.522  -1.061   0.000  0.00  0.00    +0.000 A 
ATOM     44  C   UNL     1       3.522  -2.711   0.000  0.00  0.00    +0.000 A 
ATOM     45  C   UNL     1       2.808  -1.473   0.000  0.00  0.00    +0.000 A 
ATOM     46  C   UNL     1       2.808  -2.298   0.000  0.00  0.00    +0.000 A 
ENDBRANCH  39  41
ENDBRANCH  37  38
ENDBRANCH  35  37
ENDBRANCH  34  35
ENDBRANCH  31  34
ENDBRANCH   1  33
TORSDOF 10
