REMARK  Name = 42607710
REMARK  12 active torsions:
REMARK  status: ('A' for Active; 'I' for Inactive)
REMARK    1  A    between atoms: O_3  and  C_21
REMARK    2  A    between atoms: O_3  and  C_26
REMARK    3  A    between atoms: O_6  and  C_25
REMARK    4  A    between atoms: O_6  and  C_28
REMARK    5  A    between atoms: O_12  and  C_29
REMARK    6  A    between atoms: O_13  and  C_32
REMARK    7  A    between atoms: C_16  and  C_26
REMARK    8  A    between atoms: C_24  and  C_27
REMARK    9  A    between atoms: C_33  and  C_34
REMARK   10  A    between atoms: C_34  and  C_35
REMARK   11  A    between atoms: C_35  and  C_36
REMARK   12  A    between atoms: C_36  and  C_38
REMARK                            x       y       z     vdW  Elec       q    Type
REMARK                         _______ _______ _______ _____ _____    ______ ____
ROOT
ATOM      1  O   UNL     1       6.380   0.334   0.000  0.00  0.00    +0.000 OA
ENDROOT
BRANCH   1  10
ATOM      2  O   UNL     1       5.665  -0.903   0.000  0.00  0.00    +0.000 OA
ATOM      3  O   UNL     1       6.380  -2.966   0.000  0.00  0.00    +0.000 OA
ATOM      4  O   UNL     1       7.809  -2.141   0.000  0.00  0.00    +0.000 OA
ATOM      5  O   UNL     1       7.809  -0.491   0.000  0.00  0.00    +0.000 OA
ATOM      6  C   UNL     1       5.665  -1.728   0.000  0.00  0.00    +0.000 C 
ATOM      7  C   UNL     1       6.380  -2.141   0.000  0.00  0.00    +0.000 C 
ATOM      8  C   UNL     1       7.094  -1.728   0.000  0.00  0.00    +0.000 C 
ATOM      9  C   UNL     1       7.094  -0.903   0.000  0.00  0.00    +0.000 C 
ATOM     10  C   UNL     1       6.380  -0.491   0.000  0.00  0.00    +0.000 C 
BRANCH   6  11
ATOM     11  C   UNL     1       4.951  -2.141   0.000  0.00  0.00    +0.000 C 
BRANCH  11  12
ATOM     12  O   UNL     1       4.951  -2.966   0.000  0.00  0.00    +0.000 OA
BRANCH  12  19
ATOM     13  O   UNL     1       3.522  -2.966   0.000  0.00  0.00    +0.000 OA
ATOM     14  O   UNL     1       4.951  -4.616   0.000  0.00  0.00    +0.000 OA
ATOM     15  O   UNL     1       3.522  -5.441   0.000  0.00  0.00    +0.000 OA
ATOM     16  O   UNL     1       2.093  -4.616   0.000  0.00  0.00    +0.000 OA
ATOM     17  C   UNL     1       4.236  -4.203   0.000  0.00  0.00    +0.000 C 
ATOM     18  C   UNL     1       3.522  -4.616   0.000  0.00  0.00    +0.000 C 
ATOM     19  C   UNL     1       4.236  -3.378   0.000  0.00  0.00    +0.000 C 
ATOM     20  C   UNL     1       2.808  -4.203   0.000  0.00  0.00    +0.000 C 
ATOM     21  C   UNL     1       2.808  -3.378   0.000  0.00  0.00    +0.000 C 
BRANCH  21  23
ATOM     22  O   UNL     1       2.093  -2.141   0.000  0.00  0.00    +0.000 OA
ATOM     23  C   UNL     1       2.093  -2.966   0.000  0.00  0.00    +0.000 C 
ENDBRANCH  21  23
ENDBRANCH  12  19
ENDBRANCH  11  12
ENDBRANCH   6  11
ENDBRANCH   1  10
BRANCH   1  25
ATOM     24  O   UNL     1       3.522   0.334   0.000  0.00  0.00    +0.000 OA
ATOM     25  C   UNL     1       5.665   0.747   0.000  0.00  0.00    +0.000 A 
ATOM     26  C   UNL     1       4.951   0.334   0.000  0.00  0.00    +0.000 A 
ATOM     27  C   UNL     1       5.665   1.572   0.000  0.00  0.00    +0.000 A 
ATOM     28  C   UNL     1       4.236   0.747   0.000  0.00  0.00    +0.000 A 
ATOM     29  C   UNL     1       4.951   1.984   0.000  0.00  0.00    +0.000 A 
ATOM     30  C   UNL     1       4.236   1.572   0.000  0.00  0.00    +0.000 A 
BRANCH  26  31
ATOM     31  O   UNL     1       4.951  -0.491   0.000  0.00  0.00    +0.000 OA
ATOM     32  C   UNL     1       4.236  -0.903   0.000  0.00  0.00    +0.000 C 
ENDBRANCH  26  31
BRANCH  29  33
ATOM     33  O   UNL     1       4.951   2.809   0.000  0.00  0.00    +0.000 OA
ATOM     34  C   UNL     1       5.665   3.222   0.000  0.00  0.00    +0.000 C 
ENDBRANCH  29  33
BRANCH  30  36
ATOM     35  O   UNL     1       2.808   1.572   0.000  0.00  0.00    +0.000 OA
ATOM     36  C   UNL     1       3.522   1.984   0.000  0.00  0.00    +0.000 C 
BRANCH  36  37
ATOM     37  C   UNL     1       3.522   2.809   0.000  0.00  0.00    +0.000 C 
BRANCH  37  38
ATOM     38  C   UNL     1       2.808   3.222   0.000  0.00  0.00    +0.000 C 
BRANCH  38  39
ATOM     39  C   UNL     1       2.808   4.047   0.000  0.00  0.00    +0.000 A 
ATOM     40  C   UNL     1       2.093   4.459   0.000  0.00  0.00    +0.000 A 
ATOM     41  C   UNL     1       3.522   4.459   0.000  0.00  0.00    +0.000 A 
ATOM     42  C   UNL     1       2.093   5.284   0.000  0.00  0.00    +0.000 A 
ATOM     43  C   UNL     1       3.522   5.284   0.000  0.00  0.00    +0.000 A 
ATOM     44  C   UNL     1       2.808   5.697   0.000  0.00  0.00    +0.000 A 
ENDBRANCH  38  39
ENDBRANCH  37  38
ENDBRANCH  36  37
ENDBRANCH  30  36
ENDBRANCH   1  25
TORSDOF 12
