REMARK  Name = 44259344
REMARK  11 active torsions:
REMARK  status: ('A' for Active; 'I' for Inactive)
REMARK    1  A    between atoms: O_1  and  C_23
REMARK    2  A    between atoms: O_1  and  C_26
REMARK    3  A    between atoms: O_4  and  C_28
REMARK    4  A    between atoms: O_4  and  C_40
REMARK    5  A    between atoms: O_13  and  C_39
REMARK    6  A    between atoms: O_13  and  C_45
REMARK    7  A    between atoms: O_21  and  C_53
REMARK    8  A    between atoms: C_29  and  C_33
REMARK    9  A    between atoms: C_32  and  C_34
REMARK   10  A    between atoms: C_38  and  C_41
REMARK   11  A    between atoms: C_42  and  C_49
REMARK                            x       y       z     vdW  Elec       q    Type
REMARK                         _______ _______ _______ _____ _____    ______ ____
ROOT
ATOM      1  O   UNL     1       6.389   0.667   0.000  0.00  0.00    +0.000 OA
ATOM      2  O   UNL     1       4.245  -0.570   0.000  0.00  0.00    +0.000 OA
ATOM      3  O   UNL     1       3.499   0.665   0.000  0.00  0.00    +0.000 OA
ATOM      4  C   UNL     1       5.674  -0.570   0.000  0.00  0.00    +0.000 A 
ATOM      5  C   UNL     1       6.389  -0.158   0.000  0.00  0.00    +0.000 A 
ATOM      6  C   UNL     1       4.960  -0.158   0.000  0.00  0.00    +0.000 A 
ATOM      7  C   UNL     1       4.960   0.667   0.000  0.00  0.00    +0.000 A 
ATOM      8  C   UNL     1       4.947   2.374   0.000  0.00  0.00    +0.000 A 
ATOM      9  C   UNL     1       5.674   1.080   0.000  0.00  0.00    +0.000 A 
ATOM     10  C   UNL     1       5.688   1.939   0.000  0.00  0.00    +0.000 A 
ATOM     11  C   UNL     1       4.209   1.085   0.000  0.00  0.00    +0.000 A 
ATOM     12  C   UNL     1       4.202   1.945   0.000  0.00  0.00    +0.000 A 
ENDROOT
BRANCH   5  14
ATOM     13  O   UNL     1       9.247  -1.808   0.000  0.00  0.00    +0.000 OA
ATOM     14  C   UNL     1       7.103  -0.570   0.000  0.00  0.00    +0.000 A 
ATOM     15  C   UNL     1       7.818  -0.158   0.000  0.00  0.00    +0.000 A 
ATOM     16  C   UNL     1       7.103  -1.395   0.000  0.00  0.00    +0.000 A 
ATOM     17  C   UNL     1       8.532  -0.570   0.000  0.00  0.00    +0.000 A 
ATOM     18  C   UNL     1       7.818  -1.808   0.000  0.00  0.00    +0.000 A 
ATOM     19  C   UNL     1       8.532  -1.395   0.000  0.00  0.00    +0.000 A 
BRANCH  17  20
ATOM     20  O   UNL     1       9.247  -0.158   0.000  0.00  0.00    +0.000 OA
ATOM     21  C   UNL     1       9.247   0.667   0.000  0.00  0.00    +0.000 C 
ENDBRANCH  17  20
ENDBRANCH   5  14
BRANCH   4  22
ATOM     22  O   UNL     1       5.674  -1.395   0.000  0.00  0.00    +0.000 OA
BRANCH  22  29
ATOM     23  O   UNL     1       4.245  -1.395   0.000  0.00  0.00    +0.000 OA
ATOM     24  O   UNL     1       4.245  -3.870   0.000  0.00  0.00    +0.000 OA
ATOM     25  O   UNL     1       2.816  -3.045   0.000  0.00  0.00    +0.000 OA
ATOM     26  C   UNL     1       4.960  -2.633   0.000  0.00  0.00    +0.000 C 
ATOM     27  C   UNL     1       4.245  -3.045   0.000  0.00  0.00    +0.000 C 
ATOM     28  C   UNL     1       3.531  -2.633   0.000  0.00  0.00    +0.000 C 
ATOM     29  C   UNL     1       4.960  -1.808   0.000  0.00  0.00    +0.000 C 
ATOM     30  C   UNL     1       3.531  -1.808   0.000  0.00  0.00    +0.000 C 
BRANCH  30  32
ATOM     31  O   UNL     1       2.102  -1.808   0.000  0.00  0.00    +0.000 OA
ATOM     32  C   UNL     1       2.816  -1.395   0.000  0.00  0.00    +0.000 C 
ENDBRANCH  30  32
BRANCH  26  33
ATOM     33  O   UNL     1       5.674  -3.045   0.000  0.00  0.00    +0.000 OA
BRANCH  33  38
ATOM     34  O   UNL     1       4.960  -4.283   0.000  0.00  0.00    +0.000 OA
ATOM     35  O   UNL     1       7.103  -3.870   0.000  0.00  0.00    +0.000 OA
ATOM     36  O   UNL     1       7.103  -5.520   0.000  0.00  0.00    +0.000 OA
ATOM     37  O   UNL     1       5.674  -6.345   0.000  0.00  0.00    +0.000 OA
ATOM     38  C   UNL     1       5.674  -3.870   0.000  0.00  0.00    +0.000 C 
ATOM     39  C   UNL     1       6.389  -4.283   0.000  0.00  0.00    +0.000 C 
ATOM     40  C   UNL     1       6.389  -5.108   0.000  0.00  0.00    +0.000 C 
ATOM     41  C   UNL     1       5.674  -5.520   0.000  0.00  0.00    +0.000 C 
ATOM     42  C   UNL     1       4.960  -5.108   0.000  0.00  0.00    +0.000 C 
BRANCH  42  44
ATOM     43  O   UNL     1       3.531  -5.108   0.000  0.00  0.00    +0.000 OA
ATOM     44  C   UNL     1       4.245  -5.520   0.000  0.00  0.00    +0.000 C 
ENDBRANCH  42  44
ENDBRANCH  33  38
ENDBRANCH  26  33
ENDBRANCH  22  29
ENDBRANCH   4  22
BRANCH   8  45
ATOM     45  O   UNL     1       4.950   3.199   0.000  0.00  0.00    +0.000 OA
BRANCH  45  54
ATOM     46  O   UNL     1       4.240   4.440   0.000  0.00  0.00    +0.000 OA
ATOM     47  O   UNL     1       2.092   3.210   0.000  0.00  0.00    +0.000 OA
ATOM     48  O   UNL     1       2.098   4.860   0.000  0.00  0.00    +0.000 OA
ATOM     49  O   UNL     1       3.518   2.380   0.000  0.00  0.00    +0.000 OA
ATOM     50  C   UNL     1       2.808   3.620   0.000  0.00  0.00    +0.000 C 
ATOM     51  C   UNL     1       2.811   4.445   0.000  0.00  0.00    +0.000 C 
ATOM     52  C   UNL     1       3.521   3.205   0.000  0.00  0.00    +0.000 C 
ATOM     53  C   UNL     1       3.527   4.855   0.000  0.00  0.00    +0.000 C 
ATOM     54  C   UNL     1       4.237   3.615   0.000  0.00  0.00    +0.000 C 
BRANCH  53  56
ATOM     55  O   UNL     1       4.247   6.090   0.000  0.00  0.00    +0.000 OA
ATOM     56  C   UNL     1       3.530   5.680   0.000  0.00  0.00    +0.000 C 
ENDBRANCH  53  56
ENDBRANCH  45  54
ENDBRANCH   8  45
TORSDOF 11
