REMARK  Name = 102402342
REMARK  10 active torsions:
REMARK  status: ('A' for Active; 'I' for Inactive)
REMARK    1  A    between atoms: O_2  and  C_16
REMARK    2  A    between atoms: O_2  and  C_23
REMARK    3  A    between atoms: O_3  and  C_20
REMARK    4  A    between atoms: O_3  and  C_22
REMARK    5  A    between atoms: O_11  and  C_37
REMARK    6  A    between atoms: O_12  and  C_38
REMARK    7  A    between atoms: C_18  and  C_21
REMARK    8  A    between atoms: C_23  and  C_28
REMARK    9  A    between atoms: C_24  and  C_27
REMARK   10  A    between atoms: C_34  and  C_40
REMARK                            x       y       z     vdW  Elec       q    Type
REMARK                         _______ _______ _______ _____ _____    ______ ____
ROOT
ATOM      1  O   UNL     1       8.795   2.573   0.000  0.00  0.00    +0.000 OA
ATOM      2  O   UNL     1       6.651   1.336   0.000  0.00  0.00    +0.000 OA
ATOM      3  O   UNL     1       5.905   2.571   0.000  0.00  0.00    +0.000 OA
ATOM      4  O   UNL     1       7.356   5.106   0.000  0.00  0.00    +0.000 OA
ATOM      5  C   UNL     1       8.080   1.336   0.000  0.00  0.00    +0.000 A 
ATOM      6  C   UNL     1       8.795   1.748   0.000  0.00  0.00    +0.000 A 
ATOM      7  C   UNL     1       7.366   1.748   0.000  0.00  0.00    +0.000 A 
ATOM      8  C   UNL     1       7.366   2.573   0.000  0.00  0.00    +0.000 A 
ATOM      9  C   UNL     1       8.080   2.986   0.000  0.00  0.00    +0.000 A 
ATOM     10  C   UNL     1       6.615   2.992   0.000  0.00  0.00    +0.000 A 
ATOM     11  C   UNL     1       8.094   3.845   0.000  0.00  0.00    +0.000 A 
ATOM     12  C   UNL     1       6.608   3.851   0.000  0.00  0.00    +0.000 A 
ATOM     13  C   UNL     1       7.353   4.281   0.000  0.00  0.00    +0.000 A 
ENDROOT
BRANCH   6  15
ATOM     14  O   UNL     1      11.653   0.098   0.000  0.00  0.00    +0.000 OA
ATOM     15  C   UNL     1       9.509   1.336   0.000  0.00  0.00    +0.000 A 
ATOM     16  C   UNL     1      10.224   1.748   0.000  0.00  0.00    +0.000 A 
ATOM     17  C   UNL     1       9.509   0.511   0.000  0.00  0.00    +0.000 A 
ATOM     18  C   UNL     1      10.224   0.098   0.000  0.00  0.00    +0.000 A 
ATOM     19  C   UNL     1      10.938   1.336   0.000  0.00  0.00    +0.000 A 
ATOM     20  C   UNL     1      10.938   0.511   0.000  0.00  0.00    +0.000 A 
BRANCH  18  21
ATOM     21  O   UNL     1      10.224  -0.727   0.000  0.00  0.00    +0.000 OA
ATOM     22  C   UNL     1      10.938  -1.139   0.000  0.00  0.00    +0.000 C 
ENDBRANCH  18  21
BRANCH  19  23
ATOM     23  O   UNL     1      11.653   1.748   0.000  0.00  0.00    +0.000 OA
ATOM     24  C   UNL     1      11.653   2.573   0.000  0.00  0.00    +0.000 C 
ENDBRANCH  19  23
ENDBRANCH   6  15
BRANCH   5  25
ATOM     25  O   UNL     1       8.080   0.511   0.000  0.00  0.00    +0.000 OA
BRANCH  25  33
ATOM     26  O   UNL     1       6.651   0.511   0.000  0.00  0.00    +0.000 OA
ATOM     27  O   UNL     1       6.651  -1.964   0.000  0.00  0.00    +0.000 OA
ATOM     28  O   UNL     1       8.080  -1.139   0.000  0.00  0.00    +0.000 OA
ATOM     29  C   UNL     1       5.937  -0.727   0.000  0.00  0.00    +0.000 C 
ATOM     30  C   UNL     1       6.651  -1.139   0.000  0.00  0.00    +0.000 C 
ATOM     31  C   UNL     1       5.937   0.098   0.000  0.00  0.00    +0.000 C 
ATOM     32  C   UNL     1       7.366  -0.727   0.000  0.00  0.00    +0.000 C 
ATOM     33  C   UNL     1       7.366   0.098   0.000  0.00  0.00    +0.000 C 
BRANCH  31  35
ATOM     34  O   UNL     1       4.508   0.098   0.000  0.00  0.00    +0.000 OA
ATOM     35  C   UNL     1       5.222   0.511   0.000  0.00  0.00    +0.000 C 
ENDBRANCH  31  35
BRANCH  29  36
ATOM     36  O   UNL     1       5.222  -1.139   0.000  0.00  0.00    +0.000 OA
BRANCH  36  38
ATOM     37  O   UNL     1       5.937  -2.377   0.000  0.00  0.00    +0.000 OA
ATOM     38  C   UNL     1       5.222  -1.964   0.000  0.00  0.00    +0.000 C 
BRANCH  38  39
ATOM     39  C   UNL     1       4.508  -2.377   0.000  0.00  0.00    +0.000 C 
ATOM     40  C   UNL     1       4.508  -3.202   0.000  0.00  0.00    +0.000 C 
BRANCH  40  42
ATOM     41  O   UNL     1       1.650  -4.852   0.000  0.00  0.00    +0.000 OA
ATOM     42  C   UNL     1       3.793  -3.614   0.000  0.00  0.00    +0.000 A 
ATOM     43  C   UNL     1       3.793  -4.439   0.000  0.00  0.00    +0.000 A 
ATOM     44  C   UNL     1       3.079  -3.202   0.000  0.00  0.00    +0.000 A 
ATOM     45  C   UNL     1       3.079  -4.852   0.000  0.00  0.00    +0.000 A 
ATOM     46  C   UNL     1       2.364  -3.614   0.000  0.00  0.00    +0.000 A 
ATOM     47  C   UNL     1       2.364  -4.439   0.000  0.00  0.00    +0.000 A 
ENDBRANCH  40  42
ENDBRANCH  38  39
ENDBRANCH  36  38
ENDBRANCH  29  36
ENDBRANCH  25  33
ENDBRANCH   5  25
TORSDOF 10
