REMARK  Name = 21721954
REMARK  5 active torsions:
REMARK  status: ('A' for Active; 'I' for Inactive)
REMARK    1  A    between atoms: O_2  and  C_17
REMARK    2  A    between atoms: O_2  and  C_19
REMARK    3  A    between atoms: O_10  and  C_28
REMARK    4  A    between atoms: C_16  and  C_18
REMARK    5  A    between atoms: C_21  and  C_26
REMARK                            x       y       z     vdW  Elec       q    Type
REMARK                         _______ _______ _______ _____ _____    ______ ____
ROOT
ATOM      1  O   UNL     1       7.137   1.755   0.000  0.00  0.00    +0.000 OA
ATOM      2  O   UNL     1       8.546   0.088   0.000  0.00  0.00    +0.000 OA
ATOM      3  O   UNL     1       7.108  -0.720   0.000  0.00  0.00    +0.000 OA
ATOM      4  C   UNL     1       5.665   0.093   0.000  0.00  0.00    +0.000 A 
ATOM      5  C   UNL     1       6.408   0.526   0.000  0.00  0.00    +0.000 A 
ATOM      6  C   UNL     1       7.846   1.334   0.000  0.00  0.00    +0.000 C 
ATOM      7  C   UNL     1       7.837   0.509   0.000  0.00  0.00    +0.000 C 
ATOM      8  C   UNL     1       6.417   1.351   0.000  0.00  0.00    +0.000 A 
ATOM      9  C   UNL     1       7.117   0.105   0.000  0.00  0.00    +0.000 C 
ATOM     10  C   UNL     1       4.923   0.526   0.000  0.00  0.00    +0.000 A 
ATOM     11  C   UNL     1       5.685   1.800   0.000  0.00  0.00    +0.000 A 
ATOM     12  C   UNL     1       4.933   1.385   0.000  0.00  0.00    +0.000 A 
ENDROOT
BRANCH   6  15
ATOM     13  O   UNL     1      10.704   1.301   0.000  0.00  0.00    +0.000 OA
ATOM     14  O   UNL     1      10.723   2.951   0.000  0.00  0.00    +0.000 OA
ATOM     15  C   UNL     1       8.566   1.738   0.000  0.00  0.00    +0.000 A 
ATOM     16  C   UNL     1       9.275   1.318   0.000  0.00  0.00    +0.000 A 
ATOM     17  C   UNL     1       8.575   2.563   0.000  0.00  0.00    +0.000 A 
ATOM     18  C   UNL     1       9.994   1.722   0.000  0.00  0.00    +0.000 A 
ATOM     19  C   UNL     1       9.294   2.967   0.000  0.00  0.00    +0.000 A 
ATOM     20  C   UNL     1      10.004   2.547   0.000  0.00  0.00    +0.000 A 
ENDBRANCH   6  15
BRANCH  12  21
ATOM     21  O   UNL     1       4.225   1.809   0.000  0.00  0.00    +0.000 OA
ATOM     22  C   UNL     1       4.237   2.633   0.000  0.00  0.00    +0.000 C 
ENDBRANCH  12  21
BRANCH   4  23
ATOM     23  O   UNL     1       5.665  -0.732   0.000  0.00  0.00    +0.000 OA
BRANCH  23  32
ATOM     24  O   UNL     1       4.236  -0.732   0.000  0.00  0.00    +0.000 OA
ATOM     25  O   UNL     1       4.236  -3.207   0.000  0.00  0.00    +0.000 OA
ATOM     26  O   UNL     1       2.808  -2.382   0.000  0.00  0.00    +0.000 OA
ATOM     27  O   UNL     1       5.665  -2.382   0.000  0.00  0.00    +0.000 OA
ATOM     28  C   UNL     1       4.236  -2.382   0.000  0.00  0.00    +0.000 C 
ATOM     29  C   UNL     1       3.522  -1.969   0.000  0.00  0.00    +0.000 C 
ATOM     30  C   UNL     1       4.951  -1.969   0.000  0.00  0.00    +0.000 C 
ATOM     31  C   UNL     1       3.522  -1.144   0.000  0.00  0.00    +0.000 C 
ATOM     32  C   UNL     1       4.951  -1.144   0.000  0.00  0.00    +0.000 C 
BRANCH  31  34
ATOM     33  O   UNL     1       2.093  -1.144   0.000  0.00  0.00    +0.000 OA
ATOM     34  C   UNL     1       2.808  -0.732   0.000  0.00  0.00    +0.000 C 
ENDBRANCH  31  34
ENDBRANCH  23  32
ENDBRANCH   4  23
TORSDOF 5
