REMARK  Name = 44258001
REMARK  10 active torsions:
REMARK  status: ('A' for Active; 'I' for Inactive)
REMARK    1  A    between atoms: O_1  and  C_21
REMARK    2  A    between atoms: O_1  and  C_23
REMARK    3  A    between atoms: O_4  and  C_24
REMARK    4  A    between atoms: O_4  and  C_33
REMARK    5  A    between atoms: O_5  and  C_27
REMARK    6  A    between atoms: O_5  and  C_32
REMARK    7  A    between atoms: C_26  and  C_30
REMARK    8  A    between atoms: C_29  and  C_31
REMARK    9  A    between atoms: C_33  and  C_36
REMARK   10  A    between atoms: C_34  and  C_38
REMARK                            x       y       z     vdW  Elec       q    Type
REMARK                         _______ _______ _______ _____ _____    ______ ____
ROOT
ATOM      1  O   UNL     1       5.363   2.113   0.000  0.00  0.00    +0.000 OA
ATOM      2  O   UNL     1       3.499   1.074   0.000  0.00  0.00    +0.000 OA
ATOM      3  C   UNL     1       4.951   0.844   0.000  0.00  0.00    +0.000 C 
ATOM      4  C   UNL     1       4.283   1.329   0.000  0.00  0.00    +0.000 C 
ATOM      5  C   UNL     1       4.538   2.113   0.000  0.00  0.00    +0.000 C 
ATOM      6  C   UNL     1       5.618   1.329   0.000  0.00  0.00    +0.000 C 
ENDROOT
BRANCH   5   8
ATOM      7  O   UNL     1       4.389   3.534   0.000  0.00  0.00    +0.000 OA
ATOM      8  C   UNL     1       4.053   2.781   0.000  0.00  0.00    +0.000 C 
ENDBRANCH   5   8
BRANCH   3   9
ATOM      9  O   UNL     1       4.951   0.019   0.000  0.00  0.00    +0.000 OA
BRANCH   9  13
ATOM     10  O   UNL     1       3.522   0.019   0.000  0.00  0.00    +0.000 OA
ATOM     11  O   UNL     1       3.522  -2.456   0.000  0.00  0.00    +0.000 OA
ATOM     12  O   UNL     1       2.093  -1.631   0.000  0.00  0.00    +0.000 OA
ATOM     13  C   UNL     1       4.236  -0.394   0.000  0.00  0.00    +0.000 C 
ATOM     14  C   UNL     1       4.236  -1.219   0.000  0.00  0.00    +0.000 C 
ATOM     15  C   UNL     1       3.522  -1.631   0.000  0.00  0.00    +0.000 C 
ATOM     16  C   UNL     1       2.808  -1.219   0.000  0.00  0.00    +0.000 C 
ATOM     17  C   UNL     1       2.808  -0.394   0.000  0.00  0.00    +0.000 C 
BRANCH  17  19
ATOM     18  O   UNL     1       2.093   0.844   0.000  0.00  0.00    +0.000 OA
ATOM     19  C   UNL     1       2.093   0.019   0.000  0.00  0.00    +0.000 C 
ENDBRANCH  17  19
BRANCH  14  20
ATOM     20  O   UNL     1       4.951  -1.631   0.000  0.00  0.00    +0.000 OA
BRANCH  20  22
ATOM     21  O   UNL     1       4.236  -2.869   0.000  0.00  0.00    +0.000 OA
ATOM     22  C   UNL     1       4.951  -2.456   0.000  0.00  0.00    +0.000 C 
BRANCH  22  26
ATOM     23  O   UNL     1       7.809  -2.456   0.000  0.00  0.00    +0.000 OA
ATOM     24  O   UNL     1       6.380  -4.931   0.000  0.00  0.00    +0.000 OA
ATOM     25  O   UNL     1       7.809  -4.106   0.000  0.00  0.00    +0.000 OA
ATOM     26  C   UNL     1       5.665  -2.869   0.000  0.00  0.00    +0.000 A 
ATOM     27  C   UNL     1       5.665  -3.694   0.000  0.00  0.00    +0.000 A 
ATOM     28  C   UNL     1       6.380  -2.456   0.000  0.00  0.00    +0.000 A 
ATOM     29  C   UNL     1       7.094  -2.869   0.000  0.00  0.00    +0.000 A 
ATOM     30  C   UNL     1       6.380  -4.106   0.000  0.00  0.00    +0.000 A 
ATOM     31  C   UNL     1       7.094  -3.694   0.000  0.00  0.00    +0.000 A 
ENDBRANCH  22  26
ENDBRANCH  20  22
ENDBRANCH  14  20
ENDBRANCH   9  13
ENDBRANCH   3   9
BRANCH   6  32
ATOM     32  O   UNL     1       6.403   1.074   0.000  0.00  0.00    +0.000 OA
BRANCH  32  37
ATOM     33  O   UNL     1       8.414   1.923   0.000  0.00  0.00    +0.000 OA
ATOM     34  O   UNL     1       6.060   2.688   0.000  0.00  0.00    +0.000 OA
ATOM     35  O   UNL     1       6.479   4.068   0.000  0.00  0.00    +0.000 OA
ATOM     36  O   UNL     1       9.333   4.686   0.000  0.00  0.00    +0.000 OA
ATOM     37  C   UNL     1       7.016   1.626   0.000  0.00  0.00    +0.000 A 
ATOM     38  C   UNL     1       7.801   1.371   0.000  0.00  0.00    +0.000 A 
ATOM     39  C   UNL     1       6.844   2.433   0.000  0.00  0.00    +0.000 A 
ATOM     40  C   UNL     1       7.458   2.985   0.000  0.00  0.00    +0.000 A 
ATOM     41  C   UNL     1       8.242   2.730   0.000  0.00  0.00    +0.000 A 
ATOM     42  C   UNL     1       7.266   3.822   0.000  0.00  0.00    +0.000 A 
ATOM     43  C   UNL     1       8.890   3.295   0.000  0.00  0.00    +0.000 A 
ATOM     44  C   UNL     1       7.900   4.402   0.000  0.00  0.00    +0.000 A 
ATOM     45  C   UNL     1       8.717   4.137   0.000  0.00  0.00    +0.000 A 
BRANCH  38  48
ATOM     46  O   UNL     1       9.713  -0.753   0.000  0.00  0.00    +0.000 OA
ATOM     47  O   UNL     1       8.487  -1.857   0.000  0.00  0.00    +0.000 OA
ATOM     48  C   UNL     1       7.972   0.564   0.000  0.00  0.00    +0.000 A 
ATOM     49  C   UNL     1       8.757   0.309   0.000  0.00  0.00    +0.000 A 
ATOM     50  C   UNL     1       7.359   0.012   0.000  0.00  0.00    +0.000 A 
ATOM     51  C   UNL     1       8.928  -0.498   0.000  0.00  0.00    +0.000 A 
ATOM     52  C   UNL     1       7.531  -0.795   0.000  0.00  0.00    +0.000 A 
ATOM     53  C   UNL     1       8.315  -1.050   0.000  0.00  0.00    +0.000 A 
ENDBRANCH  38  48
ENDBRANCH  32  37
ENDBRANCH   6  32
TORSDOF 10
