REMARK  Name = 44259352
REMARK  10 active torsions:
REMARK  status: ('A' for Active; 'I' for Inactive)
REMARK    1  A    between atoms: O_3  and  C_24
REMARK    2  A    between atoms: O_3  and  C_28
REMARK    3  A    between atoms: O_6  and  C_29
REMARK    4  A    between atoms: O_6  and  C_31
REMARK    5  A    between atoms: O_11  and  C_30
REMARK    6  A    between atoms: O_11  and  C_34
REMARK    7  A    between atoms: O_17  and  C_45
REMARK    8  A    between atoms: C_19  and  C_28
REMARK    9  A    between atoms: C_27  and  C_30
REMARK   10  A    between atoms: C_32  and  C_36
REMARK                            x       y       z     vdW  Elec       q    Type
REMARK                         _______ _______ _______ _____ _____    ______ ____
ROOT
ATOM      1  O   UNL     1       6.651  -0.285   0.000  0.00  0.00    +0.000 OA
ATOM      2  O   UNL     1       7.366  -2.347   0.000  0.00  0.00    +0.000 OA
ATOM      3  O   UNL     1       8.795  -1.522   0.000  0.00  0.00    +0.000 OA
ATOM      4  O   UNL     1       8.795   0.128   0.000  0.00  0.00    +0.000 OA
ATOM      5  C   UNL     1       6.651  -1.110   0.000  0.00  0.00    +0.000 C 
ATOM      6  C   UNL     1       7.366  -1.522   0.000  0.00  0.00    +0.000 C 
ATOM      7  C   UNL     1       8.080  -1.110   0.000  0.00  0.00    +0.000 C 
ATOM      8  C   UNL     1       8.080  -0.285   0.000  0.00  0.00    +0.000 C 
ATOM      9  C   UNL     1       7.366   0.128   0.000  0.00  0.00    +0.000 C 
ENDROOT
BRANCH   9  10
ATOM     10  O   UNL     1       7.366   0.953   0.000  0.00  0.00    +0.000 OA
BRANCH  10  15
ATOM     11  O   UNL     1       5.937   2.603   0.000  0.00  0.00    +0.000 OA
ATOM     12  O   UNL     1       5.937   0.128   0.000  0.00  0.00    +0.000 OA
ATOM     13  O   UNL     1       4.494   0.099   0.000  0.00  0.00    +0.000 OA
ATOM     14  O   UNL     1       3.024   2.623   0.000  0.00  0.00    +0.000 OA
ATOM     15  C   UNL     1       6.651   1.365   0.000  0.00  0.00    +0.000 A 
ATOM     16  C   UNL     1       6.651   2.190   0.000  0.00  0.00    +0.000 A 
ATOM     17  C   UNL     1       5.937   0.953   0.000  0.00  0.00    +0.000 A 
ATOM     18  C   UNL     1       5.222   1.365   0.000  0.00  0.00    +0.000 A 
ATOM     19  C   UNL     1       5.222   2.190   0.000  0.00  0.00    +0.000 A 
ATOM     20  C   UNL     1       4.485   0.924   0.000  0.00  0.00    +0.000 A 
ATOM     21  C   UNL     1       4.485   2.631   0.000  0.00  0.00    +0.000 A 
ATOM     22  C   UNL     1       3.737   1.348   0.000  0.00  0.00    +0.000 A 
ATOM     23  C   UNL     1       3.737   2.208   0.000  0.00  0.00    +0.000 A 
BRANCH  16  25
ATOM     24  O   UNL     1       9.509   3.840   0.000  0.00  0.00    +0.000 OA
ATOM     25  C   UNL     1       7.366   2.603   0.000  0.00  0.00    +0.000 A 
ATOM     26  C   UNL     1       7.366   3.428   0.000  0.00  0.00    +0.000 A 
ATOM     27  C   UNL     1       8.080   2.190   0.000  0.00  0.00    +0.000 A 
ATOM     28  C   UNL     1       8.080   3.840   0.000  0.00  0.00    +0.000 A 
ATOM     29  C   UNL     1       8.795   2.603   0.000  0.00  0.00    +0.000 A 
ATOM     30  C   UNL     1       8.795   3.428   0.000  0.00  0.00    +0.000 A 
BRANCH  28  31
ATOM     31  O   UNL     1       8.080   4.665   0.000  0.00  0.00    +0.000 OA
ATOM     32  C   UNL     1       7.366   5.078   0.000  0.00  0.00    +0.000 C 
ENDBRANCH  28  31
ENDBRANCH  16  25
ENDBRANCH  10  15
ENDBRANCH   9  10
BRANCH   5  33
ATOM     33  C   UNL     1       5.937  -1.522   0.000  0.00  0.00    +0.000 C 
BRANCH  33  34
ATOM     34  O   UNL     1       5.937  -2.347   0.000  0.00  0.00    +0.000 OA
BRANCH  34  41
ATOM     35  O   UNL     1       4.508  -2.347   0.000  0.00  0.00    +0.000 OA
ATOM     36  O   UNL     1       5.937  -3.997   0.000  0.00  0.00    +0.000 OA
ATOM     37  O   UNL     1       4.508  -4.822   0.000  0.00  0.00    +0.000 OA
ATOM     38  O   UNL     1       3.079  -3.997   0.000  0.00  0.00    +0.000 OA
ATOM     39  C   UNL     1       5.222  -3.585   0.000  0.00  0.00    +0.000 C 
ATOM     40  C   UNL     1       4.508  -3.997   0.000  0.00  0.00    +0.000 C 
ATOM     41  C   UNL     1       5.222  -2.760   0.000  0.00  0.00    +0.000 C 
ATOM     42  C   UNL     1       3.793  -3.585   0.000  0.00  0.00    +0.000 C 
ATOM     43  C   UNL     1       3.793  -2.760   0.000  0.00  0.00    +0.000 C 
BRANCH  43  44
ATOM     44  C   UNL     1       3.079  -2.347   0.000  0.00  0.00    +0.000 C 
BRANCH  44  45
ATOM     45  O   UNL     1       3.079  -1.522   0.000  0.00  0.00    +0.000 OA
BRANCH  45  47
ATOM     46  O   UNL     1       1.650  -1.522   0.000  0.00  0.00    +0.000 OA
ATOM     47  C   UNL     1       2.364  -1.110   0.000  0.00  0.00    +0.000 C 
ATOM     48  C   UNL     1       2.364  -0.285   0.000  0.00  0.00    +0.000 C 
ENDBRANCH  45  47
ENDBRANCH  44  45
ENDBRANCH  43  44
ENDBRANCH  34  41
ENDBRANCH  33  34
ENDBRANCH   5  33
TORSDOF 10
