REMARK  Name = 44259200
REMARK  14 active torsions:
REMARK  status: ('A' for Active; 'I' for Inactive)
REMARK    1  A    between atoms: O_1  and  C_27
REMARK    2  A    between atoms: O_1  and  C_30
REMARK    3  A    between atoms: O_2  and  C_26
REMARK    4  A    between atoms: O_2  and  C_33
REMARK    5  A    between atoms: O_9  and  C_36
REMARK    6  A    between atoms: O_9  and  C_44
REMARK    7  A    between atoms: O_15  and  C_43
REMARK    8  A    between atoms: O_15  and  C_47
REMARK    9  A    between atoms: C_31  and  C_41
REMARK   10  A    between atoms: C_38  and  C_42
REMARK   11  A    between atoms: C_40  and  C_43
REMARK   12  A    between atoms: C_45  and  C_49
REMARK   13  A    between atoms: C_47  and  C_52
REMARK   14  A    between atoms: C_60  and  C_62
REMARK                            x       y       z     vdW  Elec       q    Type
REMARK                         _______ _______ _______ _____ _____    ______ ____
ROOT
ATOM      1  O   UNL     1       7.809   0.472   0.000  0.00  0.00    +0.000 OA
ATOM      2  O   UNL     1       7.809  -2.003   0.000  0.00  0.00    +0.000 OA
ATOM      3  O   UNL     1       6.380  -1.178   0.000  0.00  0.00    +0.000 OA
ATOM      4  C   UNL     1       8.523  -0.765   0.000  0.00  0.00    +0.000 C 
ATOM      5  C   UNL     1       8.523   0.060   0.000  0.00  0.00    +0.000 C 
ATOM      6  C   UNL     1       7.809  -1.178   0.000  0.00  0.00    +0.000 C 
ATOM      7  C   UNL     1       7.094  -0.765   0.000  0.00  0.00    +0.000 C 
ATOM      8  C   UNL     1       7.094   0.060   0.000  0.00  0.00    +0.000 C 
ENDROOT
BRANCH   8  10
ATOM      9  O   UNL     1       6.380   1.297   0.000  0.00  0.00    +0.000 OA
ATOM     10  C   UNL     1       6.380   0.472   0.000  0.00  0.00    +0.000 C 
ENDBRANCH   8  10
BRANCH   5  11
ATOM     11  O   UNL     1       9.238   0.472   0.000  0.00  0.00    +0.000 OA
BRANCH  11  15
ATOM     12  O   UNL     1       9.952   2.535   0.000  0.00  0.00    +0.000 OA
ATOM     13  O   UNL     1       7.809   1.297   0.000  0.00  0.00    +0.000 OA
ATOM     14  O   UNL     1       7.809   2.947   0.000  0.00  0.00    +0.000 OA
ATOM     15  C   UNL     1       9.238   1.297   0.000  0.00  0.00    +0.000 C 
ATOM     16  C   UNL     1       8.523   1.710   0.000  0.00  0.00    +0.000 C 
ATOM     17  C   UNL     1       8.523   2.535   0.000  0.00  0.00    +0.000 C 
ATOM     18  C   UNL     1       9.952   1.710   0.000  0.00  0.00    +0.000 C 
ATOM     19  C   UNL     1       9.238   2.947   0.000  0.00  0.00    +0.000 C 
BRANCH  19  21
ATOM     20  O   UNL     1       8.523   4.185   0.000  0.00  0.00    +0.000 OA
ATOM     21  C   UNL     1       9.238   3.772   0.000  0.00  0.00    +0.000 C 
ENDBRANCH  19  21
BRANCH  18  22
ATOM     22  O   UNL     1      10.667   1.297   0.000  0.00  0.00    +0.000 OA
BRANCH  22  27
ATOM     23  O   UNL     1      12.810   1.710   0.000  0.00  0.00    +0.000 OA
ATOM     24  O   UNL     1      10.667   2.947   0.000  0.00  0.00    +0.000 OA
ATOM     25  O   UNL     1      11.363   4.211   0.000  0.00  0.00    +0.000 OA
ATOM     26  O   UNL     1      14.284   4.222   0.000  0.00  0.00    +0.000 OA
ATOM     27  C   UNL     1      11.381   1.710   0.000  0.00  0.00    +0.000 A 
ATOM     28  C   UNL     1      12.096   1.297   0.000  0.00  0.00    +0.000 A 
ATOM     29  C   UNL     1      11.381   2.535   0.000  0.00  0.00    +0.000 A 
ATOM     30  C   UNL     1      12.096   2.947   0.000  0.00  0.00    +0.000 A 
ATOM     31  C   UNL     1      12.810   2.535   0.000  0.00  0.00    +0.000 A 
ATOM     32  C   UNL     1      12.083   3.807   0.000  0.00  0.00    +0.000 A 
ATOM     33  C   UNL     1      13.561   2.953   0.000  0.00  0.00    +0.000 A 
ATOM     34  C   UNL     1      12.823   4.242   0.000  0.00  0.00    +0.000 A 
ATOM     35  C   UNL     1      13.568   3.812   0.000  0.00  0.00    +0.000 A 
BRANCH  28  38
ATOM     36  O   UNL     1      13.525  -1.178   0.000  0.00  0.00    +0.000 OA
ATOM     37  O   UNL     1      12.096  -2.003   0.000  0.00  0.00    +0.000 OA
ATOM     38  C   UNL     1      12.096   0.472   0.000  0.00  0.00    +0.000 A 
ATOM     39  C   UNL     1      12.810   0.060   0.000  0.00  0.00    +0.000 A 
ATOM     40  C   UNL     1      11.381   0.060   0.000  0.00  0.00    +0.000 A 
ATOM     41  C   UNL     1      12.810  -0.765   0.000  0.00  0.00    +0.000 A 
ATOM     42  C   UNL     1      11.381  -0.765   0.000  0.00  0.00    +0.000 A 
ATOM     43  C   UNL     1      12.096  -1.178   0.000  0.00  0.00    +0.000 A 
ENDBRANCH  28  38
ENDBRANCH  22  27
ENDBRANCH  18  22
ENDBRANCH  11  15
ENDBRANCH   5  11
BRANCH   4  44
ATOM     44  O   UNL     1       9.238  -1.178   0.000  0.00  0.00    +0.000 OA
BRANCH  44  49
ATOM     45  O   UNL     1       8.523  -2.415   0.000  0.00  0.00    +0.000 OA
ATOM     46  O   UNL     1      10.667  -2.003   0.000  0.00  0.00    +0.000 OA
ATOM     47  O   UNL     1      10.667  -3.653   0.000  0.00  0.00    +0.000 OA
ATOM     48  O   UNL     1       9.238  -4.478   0.000  0.00  0.00    +0.000 OA
ATOM     49  C   UNL     1       9.238  -2.003   0.000  0.00  0.00    +0.000 C 
ATOM     50  C   UNL     1       9.952  -2.415   0.000  0.00  0.00    +0.000 C 
ATOM     51  C   UNL     1       9.952  -3.240   0.000  0.00  0.00    +0.000 C 
ATOM     52  C   UNL     1       9.238  -3.653   0.000  0.00  0.00    +0.000 C 
ATOM     53  C   UNL     1       8.523  -3.240   0.000  0.00  0.00    +0.000 C 
BRANCH  53  54
ATOM     54  C   UNL     1       7.809  -3.653   0.000  0.00  0.00    +0.000 C 
BRANCH  54  55
ATOM     55  O   UNL     1       7.094  -3.240   0.000  0.00  0.00    +0.000 OA
BRANCH  55  57
ATOM     56  O   UNL     1       6.380  -4.478   0.000  0.00  0.00    +0.000 OA
ATOM     57  C   UNL     1       6.380  -3.653   0.000  0.00  0.00    +0.000 C 
BRANCH  57  58
ATOM     58  C   UNL     1       5.665  -3.240   0.000  0.00  0.00    +0.000 C 
ATOM     59  C   UNL     1       4.951  -3.653   0.000  0.00  0.00    +0.000 C 
BRANCH  59  62
ATOM     60  O   UNL     1       2.093  -3.653   0.000  0.00  0.00    +0.000 OA
ATOM     61  O   UNL     1       2.093  -2.003   0.000  0.00  0.00    +0.000 OA
ATOM     62  C   UNL     1       4.237  -3.240   0.000  0.00  0.00    +0.000 A 
ATOM     63  C   UNL     1       3.522  -3.653   0.000  0.00  0.00    +0.000 A 
ATOM     64  C   UNL     1       4.237  -2.415   0.000  0.00  0.00    +0.000 A 
ATOM     65  C   UNL     1       2.808  -3.240   0.000  0.00  0.00    +0.000 A 
ATOM     66  C   UNL     1       3.522  -2.003   0.000  0.00  0.00    +0.000 A 
ATOM     67  C   UNL     1       2.808  -2.415   0.000  0.00  0.00    +0.000 A 
ENDBRANCH  59  62
ENDBRANCH  57  58
ENDBRANCH  55  57
ENDBRANCH  54  55
ENDBRANCH  53  54
ENDBRANCH  44  49
ENDBRANCH   4  44
TORSDOF 14
