REMARK  Name = 44259551
REMARK  12 active torsions:
REMARK  status: ('A' for Active; 'I' for Inactive)
REMARK    1  A    between atoms: O_1  and  C_18
REMARK    2  A    between atoms: O_1  and  C_21
REMARK    3  A    between atoms: O_7  and  C_24
REMARK    4  A    between atoms: O_7  and  C_29
REMARK    5  A    between atoms: O_9  and  C_27
REMARK    6  A    between atoms: O_9  and  C_32
REMARK    7  A    between atoms: O_15  and  C_42
REMARK    8  A    between atoms: C_19  and  C_27
REMARK    9  A    between atoms: C_25  and  C_28
REMARK   10  A    between atoms: C_30  and  C_34
REMARK   11  A    between atoms: C_32  and  C_36
REMARK   12  A    between atoms: C_43  and  C_47
REMARK                            x       y       z     vdW  Elec       q    Type
REMARK                         _______ _______ _______ _____ _____    ______ ____
ROOT
ATOM      1  O   UNL     1       4.236   2.098   0.000  0.00  0.00    +0.000 OA
ATOM      2  O   UNL     1       4.236  -0.377   0.000  0.00  0.00    +0.000 OA
ATOM      3  O   UNL     1       2.808   0.448   0.000  0.00  0.00    +0.000 OA
ATOM      4  C   UNL     1       4.951   0.861   0.000  0.00  0.00    +0.000 C 
ATOM      5  C   UNL     1       4.236   0.448   0.000  0.00  0.00    +0.000 C 
ATOM      6  C   UNL     1       3.522   0.861   0.000  0.00  0.00    +0.000 C 
ATOM      7  C   UNL     1       4.951   1.686   0.000  0.00  0.00    +0.000 C 
ATOM      8  C   UNL     1       3.522   1.686   0.000  0.00  0.00    +0.000 C 
ENDROOT
BRANCH   8  10
ATOM      9  O   UNL     1       2.093   1.686   0.000  0.00  0.00    +0.000 OA
ATOM     10  C   UNL     1       2.808   2.098   0.000  0.00  0.00    +0.000 C 
ENDBRANCH   8  10
BRANCH   4  11
ATOM     11  O   UNL     1       5.665   0.448   0.000  0.00  0.00    +0.000 OA
BRANCH  11  17
ATOM     12  O   UNL     1       4.998  -0.862   0.000  0.00  0.00    +0.000 OA
ATOM     13  O   UNL     1       6.862  -1.901   0.000  0.00  0.00    +0.000 OA
ATOM     14  O   UNL     1       7.117  -0.607   0.000  0.00  0.00    +0.000 OA
ATOM     15  C   UNL     1       6.078  -1.647   0.000  0.00  0.00    +0.000 C 
ATOM     16  C   UNL     1       6.333  -0.862   0.000  0.00  0.00    +0.000 C 
ATOM     17  C   UNL     1       5.665  -0.377   0.000  0.00  0.00    +0.000 C 
ATOM     18  C   UNL     1       5.253  -1.647   0.000  0.00  0.00    +0.000 C 
BRANCH  15  19
ATOM     19  C   UNL     1       6.078  -2.471   0.000  0.00  0.00    +0.000 C 
BRANCH  19  20
ATOM     20  O   UNL     1       5.363  -2.884   0.000  0.00  0.00    +0.000 OA
BRANCH  20  22
ATOM     21  O   UNL     1       6.078  -4.122   0.000  0.00  0.00    +0.000 OA
ATOM     22  C   UNL     1       5.363  -3.709   0.000  0.00  0.00    +0.000 C 
BRANCH  22  23
ATOM     23  C   UNL     1       4.649  -4.122   0.000  0.00  0.00    +0.000 C 
ATOM     24  C   UNL     1       4.649  -4.947   0.000  0.00  0.00    +0.000 C 
BRANCH  24  26
ATOM     25  O   UNL     1       1.791  -6.596   0.000  0.00  0.00    +0.000 OA
ATOM     26  C   UNL     1       3.934  -5.359   0.000  0.00  0.00    +0.000 A 
ATOM     27  C   UNL     1       3.934  -6.184   0.000  0.00  0.00    +0.000 A 
ATOM     28  C   UNL     1       3.220  -4.947   0.000  0.00  0.00    +0.000 A 
ATOM     29  C   UNL     1       3.220  -6.596   0.000  0.00  0.00    +0.000 A 
ATOM     30  C   UNL     1       2.505  -5.359   0.000  0.00  0.00    +0.000 A 
ATOM     31  C   UNL     1       2.505  -6.184   0.000  0.00  0.00    +0.000 A 
ENDBRANCH  24  26
ENDBRANCH  22  23
ENDBRANCH  20  22
ENDBRANCH  19  20
ENDBRANCH  15  19
ENDBRANCH  11  17
ENDBRANCH   4  11
BRANCH   7  32
ATOM     32  O   UNL     1       5.665   2.098   0.000  0.00  0.00    +0.000 OA
BRANCH  32  36
ATOM     33  O   UNL     1       6.380   4.161   0.000  0.00  0.00    +0.000 OA
ATOM     34  O   UNL     1       4.236   2.923   0.000  0.00  0.00    +0.000 OA
ATOM     35  O   UNL     1       3.490   4.158   0.000  0.00  0.00    +0.000 OA
ATOM     36  C   UNL     1       5.665   2.923   0.000  0.00  0.00    +0.000 A 
ATOM     37  C   UNL     1       6.380   3.336   0.000  0.00  0.00    +0.000 A 
ATOM     38  C   UNL     1       4.951   3.336   0.000  0.00  0.00    +0.000 A 
ATOM     39  C   UNL     1       4.951   4.161   0.000  0.00  0.00    +0.000 A 
ATOM     40  C   UNL     1       5.665   4.573   0.000  0.00  0.00    +0.000 A 
ATOM     41  C   UNL     1       4.200   4.579   0.000  0.00  0.00    +0.000 A 
ATOM     42  C   UNL     1       5.679   5.432   0.000  0.00  0.00    +0.000 A 
ATOM     43  C   UNL     1       4.194   5.438   0.000  0.00  0.00    +0.000 A 
ATOM     44  C   UNL     1       4.938   5.868   0.000  0.00  0.00    +0.000 A 
BRANCH  37  46
ATOM     45  O   UNL     1       9.238   1.686   0.000  0.00  0.00    +0.000 OA
ATOM     46  C   UNL     1       7.094   2.923   0.000  0.00  0.00    +0.000 A 
ATOM     47  C   UNL     1       7.094   2.098   0.000  0.00  0.00    +0.000 A 
ATOM     48  C   UNL     1       7.809   3.336   0.000  0.00  0.00    +0.000 A 
ATOM     49  C   UNL     1       7.809   1.686   0.000  0.00  0.00    +0.000 A 
ATOM     50  C   UNL     1       8.523   2.923   0.000  0.00  0.00    +0.000 A 
ATOM     51  C   UNL     1       8.523   2.098   0.000  0.00  0.00    +0.000 A 
ENDBRANCH  37  46
BRANCH  44  52
ATOM     52  O   UNL     1       4.941   6.693   0.000  0.00  0.00    +0.000 OA
ATOM     53  C   UNL     1       4.228   7.108   0.000  0.00  0.00    +0.000 C 
ENDBRANCH  44  52
ENDBRANCH  32  36
ENDBRANCH   7  32
TORSDOF 12
