REMARK  Name = 44260049
REMARK  6 active torsions:
REMARK  status: ('A' for Active; 'I' for Inactive)
REMARK    1  A    between atoms: O_2  and  C_23
REMARK    2  A    between atoms: O_2  and  C_27
REMARK    3  A    between atoms: O_6  and  C_26
REMARK    4  A    between atoms: O_6  and  C_30
REMARK    5  A    between atoms: C_18  and  C_27
REMARK    6  A    between atoms: C_31  and  C_35
REMARK                            x       y       z     vdW  Elec       q    Type
REMARK                         _______ _______ _______ _____ _____    ______ ____
ROOT
ATOM      1  O   UNL     1       6.435   1.572   0.000  0.00  0.00    +0.000 OA
ENDROOT
BRANCH   1   8
ATOM      2  O   UNL     1       5.006   3.222   0.000  0.00  0.00    +0.000 OA
ATOM      3  O   UNL     1       5.006   0.747   0.000  0.00  0.00    +0.000 OA
ATOM      4  O   UNL     1       3.564   0.718   0.000  0.00  0.00    +0.000 OA
ATOM      5  O   UNL     1       3.564   4.075   0.000  0.00  0.00    +0.000 OA
ATOM      6  O   UNL     1       2.094   1.552   0.000  0.00  0.00    +0.000 OA
ATOM      7  O   UNL     1       2.094   3.242   0.000  0.00  0.00    +0.000 OA
ATOM      8  C   UNL     1       5.721   1.984   0.000  0.00  0.00    +0.000 A 
ATOM      9  C   UNL     1       5.721   2.809   0.000  0.00  0.00    +0.000 A 
ATOM     10  C   UNL     1       5.006   1.572   0.000  0.00  0.00    +0.000 A 
ATOM     11  C   UNL     1       4.292   1.984   0.000  0.00  0.00    +0.000 A 
ATOM     12  C   UNL     1       4.292   2.809   0.000  0.00  0.00    +0.000 A 
ATOM     13  C   UNL     1       3.554   1.543   0.000  0.00  0.00    +0.000 A 
ATOM     14  C   UNL     1       3.554   3.250   0.000  0.00  0.00    +0.000 A 
ATOM     15  C   UNL     1       2.807   1.967   0.000  0.00  0.00    +0.000 A 
ATOM     16  C   UNL     1       2.807   2.826   0.000  0.00  0.00    +0.000 A 
BRANCH   9  18
ATOM     17  O   UNL     1       8.579   4.459   0.000  0.00  0.00    +0.000 OA
ATOM     18  C   UNL     1       6.435   3.222   0.000  0.00  0.00    +0.000 A 
ATOM     19  C   UNL     1       7.150   2.809   0.000  0.00  0.00    +0.000 A 
ATOM     20  C   UNL     1       6.435   4.047   0.000  0.00  0.00    +0.000 A 
ATOM     21  C   UNL     1       7.864   3.222   0.000  0.00  0.00    +0.000 A 
ATOM     22  C   UNL     1       7.150   4.459   0.000  0.00  0.00    +0.000 A 
ATOM     23  C   UNL     1       7.864   4.047   0.000  0.00  0.00    +0.000 A 
ENDBRANCH   9  18
ENDBRANCH   1   8
BRANCH   1  32
ATOM     24  O   UNL     1       5.721   0.334   0.000  0.00  0.00    +0.000 OA
ATOM     25  O   UNL     1       6.435  -1.728   0.000  0.00  0.00    +0.000 OA
ATOM     26  O   UNL     1       7.864  -0.903   0.000  0.00  0.00    +0.000 OA
ATOM     27  O   UNL     1       7.864   0.747   0.000  0.00  0.00    +0.000 OA
ATOM     28  C   UNL     1       5.721  -0.491   0.000  0.00  0.00    +0.000 C 
ATOM     29  C   UNL     1       6.435  -0.903   0.000  0.00  0.00    +0.000 C 
ATOM     30  C   UNL     1       7.150  -0.491   0.000  0.00  0.00    +0.000 C 
ATOM     31  C   UNL     1       7.150   0.334   0.000  0.00  0.00    +0.000 C 
ATOM     32  C   UNL     1       6.435   0.747   0.000  0.00  0.00    +0.000 C 
BRANCH  28  33
ATOM     33  C   UNL     1       5.006  -0.903   0.000  0.00  0.00    +0.000 C 
BRANCH  33  34
ATOM     34  O   UNL     1       5.006  -1.728   0.000  0.00  0.00    +0.000 OA
BRANCH  34  40
ATOM     35  O   UNL     1       3.577  -1.728   0.000  0.00  0.00    +0.000 OA
ATOM     36  O   UNL     1       5.006  -3.378   0.000  0.00  0.00    +0.000 OA
ATOM     37  O   UNL     1       3.577  -4.203   0.000  0.00  0.00    +0.000 OA
ATOM     38  O   UNL     1       2.148  -3.378   0.000  0.00  0.00    +0.000 OA
ATOM     39  C   UNL     1       4.292  -2.966   0.000  0.00  0.00    +0.000 C 
ATOM     40  C   UNL     1       4.292  -2.141   0.000  0.00  0.00    +0.000 C 
ATOM     41  C   UNL     1       3.577  -3.378   0.000  0.00  0.00    +0.000 C 
ATOM     42  C   UNL     1       2.863  -2.966   0.000  0.00  0.00    +0.000 C 
ATOM     43  C   UNL     1       2.863  -2.141   0.000  0.00  0.00    +0.000 C 
ATOM     44  C   UNL     1       2.148  -1.728   0.000  0.00  0.00    +0.000 C 
ENDBRANCH  34  40
ENDBRANCH  33  34
ENDBRANCH  28  33
ENDBRANCH   1  32
TORSDOF 6
