REMARK  Name = 44258217
REMARK  6 active torsions:
REMARK  status: ('A' for Active; 'I' for Inactive)
REMARK    1  A    between atoms: O_16  and  C_43
REMARK    2  A    between atoms: C_17  and  C_28
REMARK    3  A    between atoms: C_18  and  C_27
REMARK    4  A    between atoms: C_25  and  C_33
REMARK    5  A    between atoms: C_26  and  C_34
REMARK    6  A    between atoms: C_32  and  C_38
REMARK                            x       y       z     vdW  Elec       q    Type
REMARK                         _______ _______ _______ _____ _____    ______ ____
ROOT
ATOM      1  O   UNL     1       5.006  -0.190   0.000  0.00  0.00    +0.000 OA
ATOM      2  O   UNL     1       5.006   2.285   0.000  0.00  0.00    +0.000 OA
ATOM      3  O   UNL     1       2.094  -0.209   0.000  0.00  0.00    +0.000 OA
ATOM      4  O   UNL     1       3.564   2.314   0.000  0.00  0.00    +0.000 OA
ATOM      5  C   UNL     1       3.554  -0.218   0.000  0.00  0.00    +0.000 A 
ATOM      6  C   UNL     1       5.721   1.048   0.000  0.00  0.00    +0.000 A 
ATOM      7  C   UNL     1       4.292   0.223   0.000  0.00  0.00    +0.000 A 
ATOM      8  C   UNL     1       4.292   1.048   0.000  0.00  0.00    +0.000 A 
ATOM      9  C   UNL     1       5.006   1.460   0.000  0.00  0.00    +0.000 A 
ATOM     10  C   UNL     1       5.721   0.223   0.000  0.00  0.00    +0.000 A 
ATOM     11  C   UNL     1       2.807   0.206   0.000  0.00  0.00    +0.000 A 
ATOM     12  C   UNL     1       3.554   1.489   0.000  0.00  0.00    +0.000 A 
ATOM     13  C   UNL     1       2.807   1.065   0.000  0.00  0.00    +0.000 A 
ENDROOT
BRANCH   6  18
ATOM     14  O   UNL     1       7.150   1.048   0.000  0.00  0.00    +0.000 OA
ATOM     15  O   UNL     1       5.721   2.698   0.000  0.00  0.00    +0.000 OA
ATOM     16  O   UNL     1       7.150   3.523   0.000  0.00  0.00    +0.000 OA
ATOM     17  O   UNL     1       8.579   2.698   0.000  0.00  0.00    +0.000 OA
ATOM     18  C   UNL     1       6.435   1.460   0.000  0.00  0.00    +0.000 C 
ATOM     19  C   UNL     1       6.435   2.285   0.000  0.00  0.00    +0.000 C 
ATOM     20  C   UNL     1       7.150   2.698   0.000  0.00  0.00    +0.000 C 
ATOM     21  C   UNL     1       7.864   2.285   0.000  0.00  0.00    +0.000 C 
ATOM     22  C   UNL     1       7.864   1.460   0.000  0.00  0.00    +0.000 C 
BRANCH  22  24
ATOM     23  O   UNL     1       9.293   1.460   0.000  0.00  0.00    +0.000 OA
ATOM     24  C   UNL     1       8.579   1.048   0.000  0.00  0.00    +0.000 C 
ENDBRANCH  22  24
ENDBRANCH   6  18
BRANCH   5  29
ATOM     25  O   UNL     1       4.283  -1.447   0.000  0.00  0.00    +0.000 OA
ATOM     26  O   UNL     1       2.135  -1.060   0.000  0.00  0.00    +0.000 OA
ATOM     27  O   UNL     1       2.154  -2.709   0.000  0.00  0.00    +0.000 OA
ATOM     28  O   UNL     1       3.592  -3.518   0.000  0.00  0.00    +0.000 OA
ATOM     29  C   UNL     1       3.564  -1.043   0.000  0.00  0.00    +0.000 C 
ATOM     30  C   UNL     1       2.854  -1.464   0.000  0.00  0.00    +0.000 C 
ATOM     31  C   UNL     1       2.864  -2.289   0.000  0.00  0.00    +0.000 C 
ATOM     32  C   UNL     1       3.583  -2.693   0.000  0.00  0.00    +0.000 C 
ATOM     33  C   UNL     1       4.293  -2.272   0.000  0.00  0.00    +0.000 C 
BRANCH  33  35
ATOM     34  O   UNL     1       5.021  -3.501   0.000  0.00  0.00    +0.000 OA
ATOM     35  C   UNL     1       5.012  -2.676   0.000  0.00  0.00    +0.000 C 
ENDBRANCH  33  35
ENDBRANCH   5  29
BRANCH  10  37
ATOM     36  O   UNL     1       7.150  -2.252   0.000  0.00  0.00    +0.000 OA
ATOM     37  C   UNL     1       6.435  -0.190   0.000  0.00  0.00    +0.000 A 
ATOM     38  C   UNL     1       6.435  -1.014   0.000  0.00  0.00    +0.000 A 
ATOM     39  C   UNL     1       7.150   0.223   0.000  0.00  0.00    +0.000 A 
ATOM     40  C   UNL     1       7.150  -1.427   0.000  0.00  0.00    +0.000 A 
ATOM     41  C   UNL     1       7.864  -0.190   0.000  0.00  0.00    +0.000 A 
ATOM     42  C   UNL     1       7.864  -1.014   0.000  0.00  0.00    +0.000 A 
BRANCH  42  43
ATOM     43  O   UNL     1       8.579  -1.427   0.000  0.00  0.00    +0.000 OA
ATOM     44  C   UNL     1       9.293  -1.014   0.000  0.00  0.00    +0.000 C 
ENDBRANCH  42  43
ENDBRANCH  10  37
TORSDOF 6
