REMARK  Name = 44259983
REMARK  7 active torsions:
REMARK  status: ('A' for Active; 'I' for Inactive)
REMARK    1  A    between atoms: O_2  and  C_23
REMARK    2  A    between atoms: O_2  and  C_27
REMARK    3  A    between atoms: O_6  and  C_26
REMARK    4  A    between atoms: O_6  and  C_30
REMARK    5  A    between atoms: O_15  and  C_41
REMARK    6  A    between atoms: C_18  and  C_27
REMARK    7  A    between atoms: C_31  and  C_35
REMARK                            x       y       z     vdW  Elec       q    Type
REMARK                         _______ _______ _______ _____ _____    ______ ____
ROOT
ATOM      1  O   UNL     1       5.278   2.681   0.000  0.00  0.00    +0.000 OA
ATOM      2  O   UNL     1       5.278   0.206   0.000  0.00  0.00    +0.000 OA
ATOM      3  O   UNL     1       3.836   0.178   0.000  0.00  0.00    +0.000 OA
ATOM      4  O   UNL     1       3.836   3.535   0.000  0.00  0.00    +0.000 OA
ATOM      5  C   UNL     1       5.993   1.444   0.000  0.00  0.00    +0.000 A 
ATOM      6  C   UNL     1       5.993   2.269   0.000  0.00  0.00    +0.000 A 
ATOM      7  C   UNL     1       5.278   1.031   0.000  0.00  0.00    +0.000 A 
ATOM      8  C   UNL     1       4.564   1.444   0.000  0.00  0.00    +0.000 A 
ATOM      9  C   UNL     1       4.564   2.269   0.000  0.00  0.00    +0.000 A 
ATOM     10  C   UNL     1       3.826   1.003   0.000  0.00  0.00    +0.000 A 
ATOM     11  C   UNL     1       3.826   2.710   0.000  0.00  0.00    +0.000 A 
ATOM     12  C   UNL     1       3.079   1.427   0.000  0.00  0.00    +0.000 A 
ATOM     13  C   UNL     1       3.079   2.286   0.000  0.00  0.00    +0.000 A 
ENDROOT
BRANCH   6  16
ATOM     14  O   UNL     1       7.422   4.744   0.000  0.00  0.00    +0.000 OA
ATOM     15  O   UNL     1       8.851   3.919   0.000  0.00  0.00    +0.000 OA
ATOM     16  C   UNL     1       6.707   2.681   0.000  0.00  0.00    +0.000 A 
ATOM     17  C   UNL     1       6.707   3.506   0.000  0.00  0.00    +0.000 A 
ATOM     18  C   UNL     1       7.422   2.269   0.000  0.00  0.00    +0.000 A 
ATOM     19  C   UNL     1       7.422   3.919   0.000  0.00  0.00    +0.000 A 
ATOM     20  C   UNL     1       8.136   2.681   0.000  0.00  0.00    +0.000 A 
ATOM     21  C   UNL     1       8.136   3.506   0.000  0.00  0.00    +0.000 A 
ENDBRANCH   6  16
BRANCH  13  22
ATOM     22  O   UNL     1       2.366   2.701   0.000  0.00  0.00    +0.000 OA
ATOM     23  C   UNL     1       1.650   2.291   0.000  0.00  0.00    +0.000 C 
ENDBRANCH  13  22
BRANCH   5  24
ATOM     24  O   UNL     1       6.707   1.031   0.000  0.00  0.00    +0.000 OA
BRANCH  24  33
ATOM     25  O   UNL     1       5.993  -0.206   0.000  0.00  0.00    +0.000 OA
ATOM     26  O   UNL     1       6.707  -2.269   0.000  0.00  0.00    +0.000 OA
ATOM     27  O   UNL     1       8.136  -1.444   0.000  0.00  0.00    +0.000 OA
ATOM     28  O   UNL     1       8.136   0.206   0.000  0.00  0.00    +0.000 OA
ATOM     29  C   UNL     1       5.993  -1.031   0.000  0.00  0.00    +0.000 C 
ATOM     30  C   UNL     1       6.707  -1.444   0.000  0.00  0.00    +0.000 C 
ATOM     31  C   UNL     1       7.422  -1.031   0.000  0.00  0.00    +0.000 C 
ATOM     32  C   UNL     1       7.422  -0.206   0.000  0.00  0.00    +0.000 C 
ATOM     33  C   UNL     1       6.707   0.206   0.000  0.00  0.00    +0.000 C 
BRANCH  29  34
ATOM     34  C   UNL     1       5.278  -1.444   0.000  0.00  0.00    +0.000 C 
BRANCH  34  35
ATOM     35  O   UNL     1       5.278  -2.269   0.000  0.00  0.00    +0.000 OA
BRANCH  35  41
ATOM     36  O   UNL     1       3.849  -2.269   0.000  0.00  0.00    +0.000 OA
ATOM     37  O   UNL     1       5.278  -3.919   0.000  0.00  0.00    +0.000 OA
ATOM     38  O   UNL     1       3.849  -4.744   0.000  0.00  0.00    +0.000 OA
ATOM     39  O   UNL     1       2.421  -3.919   0.000  0.00  0.00    +0.000 OA
ATOM     40  C   UNL     1       4.564  -3.506   0.000  0.00  0.00    +0.000 C 
ATOM     41  C   UNL     1       4.564  -2.681   0.000  0.00  0.00    +0.000 C 
ATOM     42  C   UNL     1       3.849  -3.919   0.000  0.00  0.00    +0.000 C 
ATOM     43  C   UNL     1       3.135  -3.506   0.000  0.00  0.00    +0.000 C 
ATOM     44  C   UNL     1       3.135  -2.681   0.000  0.00  0.00    +0.000 C 
ATOM     45  C   UNL     1       2.421  -2.269   0.000  0.00  0.00    +0.000 C 
ENDBRANCH  35  41
ENDBRANCH  34  35
ENDBRANCH  29  34
ENDBRANCH  24  33
ENDBRANCH   5  24
TORSDOF 7
