REMARK  Name = 23757216
REMARK  10 active torsions:
REMARK  status: ('A' for Active; 'I' for Inactive)
REMARK    1  A    between atoms: O_3  and  C_20
REMARK    2  A    between atoms: O_3  and  C_22
REMARK    3  A    between atoms: O_6  and  C_21
REMARK    4  A    between atoms: O_6  and  C_25
REMARK    5  A    between atoms: C_18  and  C_21
REMARK    6  A    between atoms: C_23  and  C_24
REMARK    7  A    between atoms: C_23  and  C_28
REMARK    8  A    between atoms: C_24  and  C_25
REMARK    9  A    between atoms: C_26  and  C_32
REMARK   10  A    between atoms: C_28  and  C_34
REMARK                            x       y       z     vdW  Elec       q    Type
REMARK                         _______ _______ _______ _____ _____    ______ ____
ROOT
ATOM      1  O   UNL     1       9.952  -1.061   0.000  0.00  0.00    +0.000 OA
ENDROOT
BRANCH   1   6
ATOM      2  O   UNL     1      10.667   1.002   0.000  0.00  0.00    +0.000 OA
ATOM      3  O   UNL     1       8.523  -0.236   0.000  0.00  0.00    +0.000 OA
ATOM      4  O   UNL     1       7.777   0.999   0.000  0.00  0.00    +0.000 OA
ATOM      5  O   UNL     1       9.228   3.534   0.000  0.00  0.00    +0.000 OA
ATOM      6  C   UNL     1       9.952  -0.236   0.000  0.00  0.00    +0.000 A 
ATOM      7  C   UNL     1      10.667   0.177   0.000  0.00  0.00    +0.000 A 
ATOM      8  C   UNL     1       9.238   0.177   0.000  0.00  0.00    +0.000 A 
ATOM      9  C   UNL     1       9.238   1.002   0.000  0.00  0.00    +0.000 A 
ATOM     10  C   UNL     1       9.952   1.414   0.000  0.00  0.00    +0.000 A 
ATOM     11  C   UNL     1       8.487   1.420   0.000  0.00  0.00    +0.000 A 
ATOM     12  C   UNL     1       9.965   2.273   0.000  0.00  0.00    +0.000 A 
ATOM     13  C   UNL     1       8.480   2.279   0.000  0.00  0.00    +0.000 A 
ATOM     14  C   UNL     1       9.225   2.709   0.000  0.00  0.00    +0.000 A 
BRANCH   7  16
ATOM     15  O   UNL     1      13.524  -1.473   0.000  0.00  0.00    +0.000 OA
ATOM     16  C   UNL     1      11.381  -0.236   0.000  0.00  0.00    +0.000 A 
ATOM     17  C   UNL     1      11.381  -1.061   0.000  0.00  0.00    +0.000 A 
ATOM     18  C   UNL     1      12.096   0.177   0.000  0.00  0.00    +0.000 A 
ATOM     19  C   UNL     1      12.096  -1.473   0.000  0.00  0.00    +0.000 A 
ATOM     20  C   UNL     1      12.810  -0.236   0.000  0.00  0.00    +0.000 A 
ATOM     21  C   UNL     1      12.810  -1.061   0.000  0.00  0.00    +0.000 A 
ENDBRANCH   7  16
ENDBRANCH   1   6
BRANCH   1  30
ATOM     22  O   UNL     1       8.523  -1.061   0.000  0.00  0.00    +0.000 OA
ATOM     23  O   UNL     1       7.094  -2.711   0.000  0.00  0.00    +0.000 OA
ATOM     24  O   UNL     1       8.523  -3.536   0.000  0.00  0.00    +0.000 OA
ATOM     25  O   UNL     1       9.952  -2.711   0.000  0.00  0.00    +0.000 OA
ATOM     26  C   UNL     1       7.809  -2.298   0.000  0.00  0.00    +0.000 C 
ATOM     27  C   UNL     1       8.523  -2.711   0.000  0.00  0.00    +0.000 C 
ATOM     28  C   UNL     1       7.809  -1.473   0.000  0.00  0.00    +0.000 C 
ATOM     29  C   UNL     1       9.238  -2.298   0.000  0.00  0.00    +0.000 C 
ATOM     30  C   UNL     1       9.238  -1.473   0.000  0.00  0.00    +0.000 C 
BRANCH  28  31
ATOM     31  C   UNL     1       7.094  -1.061   0.000  0.00  0.00    +0.000 C 
BRANCH  31  32
ATOM     32  O   UNL     1       6.380  -1.473   0.000  0.00  0.00    +0.000 OA
BRANCH  32  34
ATOM     33  O   UNL     1       5.665  -0.236   0.000  0.00  0.00    +0.000 OA
ATOM     34  C   UNL     1       5.665  -1.061   0.000  0.00  0.00    +0.000 C 
BRANCH  34  35
ATOM     35  C   UNL     1       4.951  -1.473   0.000  0.00  0.00    +0.000 C 
BRANCH  35  37
ATOM     36  O   UNL     1       3.824  -1.775   0.000  0.00  0.00    +0.000 OA
ATOM     37  C   UNL     1       4.236  -1.061   0.000  0.00  0.00    +0.000 C 
ATOM     38  C   UNL     1       4.649  -0.346   0.000  0.00  0.00    +0.000 C 
BRANCH  37  39
ATOM     39  C   UNL     1       3.522  -0.648   0.000  0.00  0.00    +0.000 C 
BRANCH  39  42
ATOM     40  O   UNL     1       2.093  -0.648   0.000  0.00  0.00    +0.000 OA
ATOM     41  O   UNL     1       2.808  -1.886   0.000  0.00  0.00    +0.000 OA
ATOM     42  C   UNL     1       2.808  -1.061   0.000  0.00  0.00    +0.000 C 
ENDBRANCH  39  42
ENDBRANCH  37  39
ENDBRANCH  35  37
ENDBRANCH  34  35
ENDBRANCH  32  34
ENDBRANCH  31  32
ENDBRANCH  28  31
ENDBRANCH   1  30
TORSDOF 10
