REMARK  Name = 74977686
REMARK  6 active torsions:
REMARK  status: ('A' for Active; 'I' for Inactive)
REMARK    1  A    between atoms: O_2  and  C_16
REMARK    2  A    between atoms: O_2  and  C_21
REMARK    3  A    between atoms: O_14  and  C_39
REMARK    4  A    between atoms: C_18  and  C_22
REMARK    5  A    between atoms: C_20  and  C_25
REMARK    6  A    between atoms: C_34  and  C_36
REMARK                            x       y       z     vdW  Elec       q    Type
REMARK                         _______ _______ _______ _____ _____    ______ ____
ROOT
ATOM      1  O   UNL     1       7.832   0.384   0.000  0.00  0.00    +0.000 OA
ATOM      2  O   UNL     1       4.951   0.412   0.000  0.00  0.00    +0.000 OA
ATOM      3  O   UNL     1       6.380   2.888   0.000  0.00  0.00    +0.000 OA
ATOM      4  O   UNL     1       7.822   2.916   0.000  0.00  0.00    +0.000 OA
ATOM      5  C   UNL     1       6.380   0.412   0.000  0.00  0.00    +0.000 A 
ATOM      6  C   UNL     1       7.094   0.825   0.000  0.00  0.00    +0.000 A 
ATOM      7  C   UNL     1       5.665   0.825   0.000  0.00  0.00    +0.000 A 
ATOM      8  C   UNL     1       7.094   1.650   0.000  0.00  0.00    +0.000 A 
ATOM      9  C   UNL     1       5.665   1.650   0.000  0.00  0.00    +0.000 A 
ATOM     10  C   UNL     1       6.380   2.062   0.000  0.00  0.00    +0.000 A 
ATOM     11  C   UNL     1       7.832   2.091   0.000  0.00  0.00    +0.000 A 
ATOM     12  C   UNL     1       8.579   0.808   0.000  0.00  0.00    +0.000 A 
ATOM     13  C   UNL     1       8.579   1.667   0.000  0.00  0.00    +0.000 A 
ENDROOT
BRANCH   5  19
ATOM     14  O   UNL     1       7.094  -0.825   0.000  0.00  0.00    +0.000 OA
ATOM     15  O   UNL     1       4.951  -2.062   0.000  0.00  0.00    +0.000 OA
ATOM     16  O   UNL     1       6.380  -2.888   0.000  0.00  0.00    +0.000 OA
ATOM     17  C   UNL     1       5.665  -0.825   0.000  0.00  0.00    +0.000 C 
ATOM     18  C   UNL     1       5.665  -1.650   0.000  0.00  0.00    +0.000 C 
ATOM     19  C   UNL     1       6.380  -0.412   0.000  0.00  0.00    +0.000 C 
ATOM     20  C   UNL     1       6.380  -2.062   0.000  0.00  0.00    +0.000 C 
ATOM     21  C   UNL     1       7.094  -1.650   0.000  0.00  0.00    +0.000 C 
BRANCH  21  23
ATOM     22  O   UNL     1       7.809  -2.888   0.000  0.00  0.00    +0.000 OA
ATOM     23  C   UNL     1       7.809  -2.062   0.000  0.00  0.00    +0.000 C 
ENDBRANCH  21  23
BRANCH  17  24
ATOM     24  O   UNL     1       4.951  -0.412   0.000  0.00  0.00    +0.000 OA
BRANCH  24  29
ATOM     25  O   UNL     1       4.236  -1.650   0.000  0.00  0.00    +0.000 OA
ATOM     26  O   UNL     1       3.522   0.412   0.000  0.00  0.00    +0.000 OA
ATOM     27  O   UNL     1       2.093  -0.412   0.000  0.00  0.00    +0.000 OA
ATOM     28  O   UNL     1       2.093  -2.062   0.000  0.00  0.00    +0.000 OA
ATOM     29  C   UNL     1       4.236  -0.825   0.000  0.00  0.00    +0.000 C 
ATOM     30  C   UNL     1       3.522  -0.412   0.000  0.00  0.00    +0.000 C 
ATOM     31  C   UNL     1       2.808  -0.825   0.000  0.00  0.00    +0.000 C 
ATOM     32  C   UNL     1       2.808  -1.650   0.000  0.00  0.00    +0.000 C 
ATOM     33  C   UNL     1       3.522  -2.062   0.000  0.00  0.00    +0.000 C 
ENDBRANCH  24  29
ENDBRANCH  17  24
ENDBRANCH   5  19
BRANCH  12  35
ATOM     34  O   UNL     1      11.431  -0.853   0.000  0.00  0.00    +0.000 OA
ATOM     35  C   UNL     1       9.292   0.393   0.000  0.00  0.00    +0.000 A 
ATOM     36  C   UNL     1       9.289  -0.432   0.000  0.00  0.00    +0.000 A 
ATOM     37  C   UNL     1      10.008   0.802   0.000  0.00  0.00    +0.000 A 
ATOM     38  C   UNL     1      10.002  -0.848   0.000  0.00  0.00    +0.000 A 
ATOM     39  C   UNL     1      10.721   0.387   0.000  0.00  0.00    +0.000 A 
ATOM     40  C   UNL     1      10.718  -0.438   0.000  0.00  0.00    +0.000 A 
BRANCH  38  41
ATOM     41  O   UNL     1       9.999  -1.673   0.000  0.00  0.00    +0.000 OA
ATOM     42  C   UNL     1      10.712  -2.088   0.000  0.00  0.00    +0.000 C 
ENDBRANCH  38  41
ENDBRANCH  12  35
TORSDOF 6
