REMARK  Name = 
REMARK  4 active torsions:
REMARK  status: ('A' for Active; 'I' for Inactive)
REMARK    1  A    between atoms: O_2  and  C_13
REMARK    2  A    between atoms: O_2  and  C_15
REMARK    3  A    between atoms: C_12  and  C_14
REMARK    4  A    between atoms: C_22  and  C_24
REMARK                            x       y       z     vdW  Elec       q    Type
REMARK                         _______ _______ _______ _____ _____    ______ ____
ROOT
ATOM      1  O   UNL     1       9.987  -3.667   0.000  0.00  0.00    +0.000 OA
ATOM      2  O   UNL     1      12.562  -5.167   0.000  0.00  0.00    +0.000 OA
ATOM      3  C   UNL     1       9.959  -6.716   0.000  0.00  0.00    +0.000 A 
ATOM      4  C   UNL     1      10.854  -6.195   0.000  0.00  0.00    +0.000 A 
ATOM      5  C   UNL     1       9.065  -6.195   0.000  0.00  0.00    +0.000 A 
ATOM      6  C   UNL     1      10.842  -5.160   0.000  0.00  0.00    +0.000 A 
ATOM      7  C   UNL     1       9.983  -4.660   0.000  0.00  0.00    +0.000 A 
ATOM      8  C   UNL     1       9.077  -5.160   0.000  0.00  0.00    +0.000 A 
ATOM      9  C   UNL     1      11.704  -4.667   0.000  0.00  0.00    +0.000 A 
ATOM     10  C   UNL     1      10.849  -3.173   0.000  0.00  0.00    +0.000 A 
ATOM     11  C   UNL     1      11.708  -3.673   0.000  0.00  0.00    +0.000 A 
ENDROOT
BRANCH  10  12
ATOM     12  C   UNL     1      10.853  -2.179   0.000  0.00  0.00    +0.000 A 
ATOM     13  C   UNL     1       9.995  -1.679   0.000  0.00  0.00    +0.000 A 
ATOM     14  C   UNL     1      11.715  -1.686   0.000  0.00  0.00    +0.000 A 
ATOM     15  C   UNL     1       9.998  -0.686   0.000  0.00  0.00    +0.000 A 
ATOM     16  C   UNL     1      11.719  -0.693   0.000  0.00  0.00    +0.000 A 
ATOM     17  C   UNL     1      10.861  -0.192   0.000  0.00  0.00    +0.000 A 
ENDBRANCH  10  12
BRANCH   3  18
ATOM     18  O   UNL     1       9.959  -7.709   0.000  0.00  0.00    +0.000 OA
BRANCH  18  27
ATOM     19  O   UNL     1       8.238  -7.709   0.000  0.00  0.00    +0.000 OA
ATOM     20  O   UNL     1       8.238 -10.690   0.000  0.00  0.00    +0.000 OA
ATOM     21  O   UNL     1       6.518  -9.696   0.000  0.00  0.00    +0.000 OA
ATOM     22  O   UNL     1       9.959  -9.696   0.000  0.00  0.00    +0.000 OA
ATOM     23  C   UNL     1       8.238  -9.696   0.000  0.00  0.00    +0.000 C 
ATOM     24  C   UNL     1       7.378  -9.200   0.000  0.00  0.00    +0.000 C 
ATOM     25  C   UNL     1       9.099  -9.200   0.000  0.00  0.00    +0.000 C 
ATOM     26  C   UNL     1       7.378  -8.206   0.000  0.00  0.00    +0.000 C 
ATOM     27  C   UNL     1       9.099  -8.206   0.000  0.00  0.00    +0.000 C 
BRANCH  26  29
ATOM     28  O   UNL     1       5.657  -8.206   0.000  0.00  0.00    +0.000 OA
ATOM     29  C   UNL     1       6.518  -7.709   0.000  0.00  0.00    +0.000 C 
ENDBRANCH  26  29
ENDBRANCH  18  27
ENDBRANCH   3  18
TORSDOF 4
