REMARK  Name = 44257961
REMARK  6 active torsions:
REMARK  status: ('A' for Active; 'I' for Inactive)
REMARK    1  A    between atoms: O_2  and  C_16
REMARK    2  A    between atoms: O_2  and  C_28
REMARK    3  A    between atoms: C_18  and  C_21
REMARK    4  A    between atoms: C_20  and  C_22
REMARK    5  A    between atoms: C_28  and  C_30
REMARK    6  A    between atoms: C_32  and  C_35
REMARK                            x       y       z     vdW  Elec       q    Type
REMARK                         _______ _______ _______ _____ _____    ______ ____
ROOT
ATOM      1  O   UNL     1       4.236  -0.813   0.000  0.00  0.00    +0.000 OA
ATOM      2  O   UNL     1       4.236   1.662   0.000  0.00  0.00    +0.000 OA
ATOM      3  O   UNL     1       2.808   0.837   0.000  0.00  0.00    +0.000 OA
ATOM      4  C   UNL     1       4.951   0.425   0.000  0.00  0.00    +0.000 C 
ATOM      5  C   UNL     1       4.236   0.837   0.000  0.00  0.00    +0.000 C 
ATOM      6  C   UNL     1       4.951  -0.400   0.000  0.00  0.00    +0.000 C 
ATOM      7  C   UNL     1       3.522   0.425   0.000  0.00  0.00    +0.000 C 
ATOM      8  C   UNL     1       3.522  -0.400   0.000  0.00  0.00    +0.000 C 
ENDROOT
BRANCH   6  13
ATOM      9  O   UNL     1       6.380   0.425   0.000  0.00  0.00    +0.000 OA
ATOM     10  O   UNL     1       4.951  -2.050   0.000  0.00  0.00    +0.000 OA
ATOM     11  O   UNL     1       7.832  -2.079   0.000  0.00  0.00    +0.000 OA
ATOM     12  O   UNL     1       7.822   0.453   0.000  0.00  0.00    +0.000 OA
ATOM     13  C   UNL     1       5.665  -0.813   0.000  0.00  0.00    +0.000 A 
ATOM     14  C   UNL     1       6.380  -0.400   0.000  0.00  0.00    +0.000 A 
ATOM     15  C   UNL     1       5.665  -1.638   0.000  0.00  0.00    +0.000 A 
ATOM     16  C   UNL     1       7.094  -0.813   0.000  0.00  0.00    +0.000 A 
ATOM     17  C   UNL     1       6.380  -2.050   0.000  0.00  0.00    +0.000 A 
ATOM     18  C   UNL     1       7.094  -1.638   0.000  0.00  0.00    +0.000 A 
ATOM     19  C   UNL     1       7.832  -0.372   0.000  0.00  0.00    +0.000 A 
ATOM     20  C   UNL     1       8.579  -0.796   0.000  0.00  0.00    +0.000 A 
ATOM     21  C   UNL     1       8.579  -1.655   0.000  0.00  0.00    +0.000 A 
BRANCH  21  24
ATOM     22  O   UNL     1       9.999  -4.136   0.000  0.00  0.00    +0.000 OA
ATOM     23  O   UNL     1      11.431  -3.316   0.000  0.00  0.00    +0.000 OA
ATOM     24  C   UNL     1       9.292  -2.070   0.000  0.00  0.00    +0.000 A 
ATOM     25  C   UNL     1       9.289  -2.895   0.000  0.00  0.00    +0.000 A 
ATOM     26  C   UNL     1      10.008  -1.661   0.000  0.00  0.00    +0.000 A 
ATOM     27  C   UNL     1      10.002  -3.311   0.000  0.00  0.00    +0.000 A 
ATOM     28  C   UNL     1      10.721  -2.076   0.000  0.00  0.00    +0.000 A 
ATOM     29  C   UNL     1      10.718  -2.901   0.000  0.00  0.00    +0.000 A 
ENDBRANCH  21  24
ENDBRANCH   6  13
BRANCH   8  31
ATOM     30  O   UNL     1       2.093  -0.400   0.000  0.00  0.00    +0.000 OA
ATOM     31  C   UNL     1       2.808  -0.813   0.000  0.00  0.00    +0.000 C 
ENDBRANCH   8  31
BRANCH   4  32
ATOM     32  O   UNL     1       5.665   0.837   0.000  0.00  0.00    +0.000 OA
BRANCH  32  34
ATOM     33  O   UNL     1       4.951   2.075   0.000  0.00  0.00    +0.000 OA
ATOM     34  C   UNL     1       5.665   1.662   0.000  0.00  0.00    +0.000 C 
BRANCH  34  38
ATOM     35  O   UNL     1       7.094   4.137   0.000  0.00  0.00    +0.000 OA
ATOM     36  O   UNL     1       8.523   1.662   0.000  0.00  0.00    +0.000 OA
ATOM     37  O   UNL     1       8.523   3.312   0.000  0.00  0.00    +0.000 OA
ATOM     38  C   UNL     1       6.380   2.075   0.000  0.00  0.00    +0.000 A 
ATOM     39  C   UNL     1       7.094   1.662   0.000  0.00  0.00    +0.000 A 
ATOM     40  C   UNL     1       6.380   2.900   0.000  0.00  0.00    +0.000 A 
ATOM     41  C   UNL     1       7.094   3.312   0.000  0.00  0.00    +0.000 A 
ATOM     42  C   UNL     1       7.809   2.075   0.000  0.00  0.00    +0.000 A 
ATOM     43  C   UNL     1       7.809   2.900   0.000  0.00  0.00    +0.000 A 
ENDBRANCH  34  38
ENDBRANCH  32  34
ENDBRANCH   4  32
TORSDOF 6
