REMARK  Name = 44259090
REMARK  3 active torsions:
REMARK  status: ('A' for Active; 'I' for Inactive)
REMARK    1  A    between atoms: C_15  and  C_18
REMARK    2  A    between atoms: C_17  and  C_19
REMARK    3  A    between atoms: C_27  and  C_28
REMARK                            x       y       z     vdW  Elec       q    Type
REMARK                         _______ _______ _______ _____ _____    ______ ____
ROOT
ATOM      1  O   UNL     1       6.380   1.662   0.000  0.00  0.00    +0.000 OA
ATOM      2  O   UNL     1       4.951  -0.813   0.000  0.00  0.00    +0.000 OA
ATOM      3  O   UNL     1       7.832  -0.841   0.000  0.00  0.00    +0.000 OA
ATOM      4  O   UNL     1       7.822   1.691   0.000  0.00  0.00    +0.000 OA
ATOM      5  O   UNL     1       9.292   0.857   0.000  0.00  0.00    +0.000 OA
ATOM      6  C   UNL     1       5.665   0.425   0.000  0.00  0.00    +0.000 A 
ATOM      7  C   UNL     1       6.380   0.837   0.000  0.00  0.00    +0.000 A 
ATOM      8  C   UNL     1       5.665  -0.400   0.000  0.00  0.00    +0.000 A 
ATOM      9  C   UNL     1       7.094   0.425   0.000  0.00  0.00    +0.000 A 
ATOM     10  C   UNL     1       6.380  -0.813   0.000  0.00  0.00    +0.000 A 
ATOM     11  C   UNL     1       7.094  -0.400   0.000  0.00  0.00    +0.000 A 
ATOM     12  C   UNL     1       7.832   0.866   0.000  0.00  0.00    +0.000 A 
ATOM     13  C   UNL     1       8.579   0.442   0.000  0.00  0.00    +0.000 A 
ATOM     14  C   UNL     1       8.579  -0.417   0.000  0.00  0.00    +0.000 A 
ENDROOT
BRANCH   6  21
ATOM     15  O   UNL     1       4.236   0.425   0.000  0.00  0.00    +0.000 OA
ATOM     16  O   UNL     1       5.665   2.075   0.000  0.00  0.00    +0.000 OA
ATOM     17  O   UNL     1       4.236   2.900   0.000  0.00  0.00    +0.000 OA
ATOM     18  O   UNL     1       2.808   2.075   0.000  0.00  0.00    +0.000 OA
ATOM     19  C   UNL     1       4.951   1.662   0.000  0.00  0.00    +0.000 C 
ATOM     20  C   UNL     1       4.236   2.075   0.000  0.00  0.00    +0.000 C 
ATOM     21  C   UNL     1       4.951   0.837   0.000  0.00  0.00    +0.000 C 
ATOM     22  C   UNL     1       3.522   1.662   0.000  0.00  0.00    +0.000 C 
ATOM     23  C   UNL     1       3.522   0.837   0.000  0.00  0.00    +0.000 C 
BRANCH  23  25
ATOM     24  O   UNL     1       2.093   0.837   0.000  0.00  0.00    +0.000 OA
ATOM     25  C   UNL     1       2.808   0.425   0.000  0.00  0.00    +0.000 C 
ENDBRANCH  23  25
ENDBRANCH   6  21
BRANCH  14  28
ATOM     26  O   UNL     1       9.999  -2.898   0.000  0.00  0.00    +0.000 OA
ATOM     27  O   UNL     1      11.431  -2.079   0.000  0.00  0.00    +0.000 OA
ATOM     28  C   UNL     1       9.292  -0.833   0.000  0.00  0.00    +0.000 A 
ATOM     29  C   UNL     1       9.289  -1.658   0.000  0.00  0.00    +0.000 A 
ATOM     30  C   UNL     1      10.008  -0.423   0.000  0.00  0.00    +0.000 A 
ATOM     31  C   UNL     1      10.002  -2.073   0.000  0.00  0.00    +0.000 A 
ATOM     32  C   UNL     1      10.721  -0.838   0.000  0.00  0.00    +0.000 A 
ATOM     33  C   UNL     1      10.718  -1.663   0.000  0.00  0.00    +0.000 A 
ENDBRANCH  14  28
TORSDOF 3
