REMARK  Name = 44258156
REMARK  3 active torsions:
REMARK  status: ('A' for Active; 'I' for Inactive)
REMARK    1  A    between atoms: O_8  and  C_28
REMARK    2  A    between atoms: C_11  and  C_15
REMARK    3  A    between atoms: C_23  and  C_25
REMARK                            x       y       z     vdW  Elec       q    Type
REMARK                         _______ _______ _______ _____ _____    ______ ____
ROOT
ATOM      1  O   UNL     1       5.665   1.741   0.000  0.00  0.00    +0.000 OA
ATOM      2  O   UNL     1       4.236  -0.734   0.000  0.00  0.00    +0.000 OA
ATOM      3  O   UNL     1       7.117  -0.762   0.000  0.00  0.00    +0.000 OA
ATOM      4  O   UNL     1       7.108   1.770   0.000  0.00  0.00    +0.000 OA
ATOM      5  C   UNL     1       4.951   0.504   0.000  0.00  0.00    +0.000 A 
ATOM      6  C   UNL     1       5.665   0.916   0.000  0.00  0.00    +0.000 A 
ATOM      7  C   UNL     1       4.951  -0.321   0.000  0.00  0.00    +0.000 A 
ATOM      8  C   UNL     1       6.380   0.504   0.000  0.00  0.00    +0.000 A 
ATOM      9  C   UNL     1       5.665  -0.734   0.000  0.00  0.00    +0.000 A 
ATOM     10  C   UNL     1       6.380  -0.321   0.000  0.00  0.00    +0.000 A 
ATOM     11  C   UNL     1       7.117   0.945   0.000  0.00  0.00    +0.000 A 
ATOM     12  C   UNL     1       7.865  -0.339   0.000  0.00  0.00    +0.000 A 
ATOM     13  C   UNL     1       7.865   0.521   0.000  0.00  0.00    +0.000 A 
ENDROOT
BRANCH   5  18
ATOM     14  O   UNL     1       3.522   0.504   0.000  0.00  0.00    +0.000 OA
ATOM     15  O   UNL     1       3.522   2.979   0.000  0.00  0.00    +0.000 OA
ATOM     16  O   UNL     1       2.093   2.154   0.000  0.00  0.00    +0.000 OA
ATOM     17  C   UNL     1       3.522   2.154   0.000  0.00  0.00    +0.000 C 
ATOM     18  C   UNL     1       4.236   0.916   0.000  0.00  0.00    +0.000 C 
ATOM     19  C   UNL     1       2.808   1.741   0.000  0.00  0.00    +0.000 C 
ATOM     20  C   UNL     1       4.236   1.741   0.000  0.00  0.00    +0.000 C 
ATOM     21  C   UNL     1       2.808   0.916   0.000  0.00  0.00    +0.000 C 
ATOM     22  C   UNL     1       2.093   0.504   0.000  0.00  0.00    +0.000 C 
ENDBRANCH   5  18
BRANCH  12  24
ATOM     23  O   UNL     1      10.716  -2.000   0.000  0.00  0.00    +0.000 OA
ATOM     24  C   UNL     1       8.578  -0.754   0.000  0.00  0.00    +0.000 A 
ATOM     25  C   UNL     1       8.575  -1.579   0.000  0.00  0.00    +0.000 A 
ATOM     26  C   UNL     1       9.294  -0.344   0.000  0.00  0.00    +0.000 A 
ATOM     27  C   UNL     1       9.287  -1.994   0.000  0.00  0.00    +0.000 A 
ATOM     28  C   UNL     1      10.007  -0.759   0.000  0.00  0.00    +0.000 A 
ATOM     29  C   UNL     1      10.004  -1.584   0.000  0.00  0.00    +0.000 A 
BRANCH  27  30
ATOM     30  O   UNL     1       9.284  -2.819   0.000  0.00  0.00    +0.000 OA
ATOM     31  C   UNL     1       9.997  -3.234   0.000  0.00  0.00    +0.000 C 
ENDBRANCH  27  30
ENDBRANCH  12  24
TORSDOF 3
