REMARK  Name = 44257750
REMARK  7 active torsions:
REMARK  status: ('A' for Active; 'I' for Inactive)
REMARK    1  A    between atoms: O_1  and  C_19
REMARK    2  A    between atoms: O_1  and  C_23
REMARK    3  A    between atoms: O_5  and  C_30
REMARK    4  A    between atoms: O_5  and  C_34
REMARK    5  A    between atoms: C_20  and  C_24
REMARK    6  A    between atoms: C_32  and  C_39
REMARK    7  A    between atoms: C_43  and  C_44
REMARK                            x       y       z     vdW  Elec       q    Type
REMARK                         _______ _______ _______ _____ _____    ______ ____
ROOT
ATOM      1  O   UNL     1       7.417   1.095   0.000  0.00  0.00    +0.000 OA
ATOM      2  O   UNL     1       4.523   1.101   0.000  0.00  0.00    +0.000 OA
ATOM      3  O   UNL     1       6.721   2.359   0.000  0.00  0.00    +0.000 OA
ATOM      4  C   UNL     1       6.702  -0.142   0.000  0.00  0.00    +0.000 A 
ATOM      5  C   UNL     1       5.988  -0.555   0.000  0.00  0.00    +0.000 A 
ATOM      6  C   UNL     1       6.702   0.683   0.000  0.00  0.00    +0.000 A 
ATOM      7  C   UNL     1       5.274  -0.142   0.000  0.00  0.00    +0.000 A 
ATOM      8  C   UNL     1       5.988   1.095   0.000  0.00  0.00    +0.000 A 
ATOM      9  C   UNL     1       5.274   0.683   0.000  0.00  0.00    +0.000 A 
ATOM     10  C   UNL     1       6.001   1.954   0.000  0.00  0.00    +0.000 A 
ATOM     11  C   UNL     1       5.260   2.390   0.000  0.00  0.00    +0.000 A 
ATOM     12  C   UNL     1       4.516   1.960   0.000  0.00  0.00    +0.000 A 
ENDROOT
BRANCH   4  17
ATOM     13  O   UNL     1       7.417  -1.380   0.000  0.00  0.00    +0.000 OA
ATOM     14  O   UNL     1       9.560  -0.142   0.000  0.00  0.00    +0.000 OA
ATOM     15  O   UNL     1       9.560  -1.792   0.000  0.00  0.00    +0.000 OA
ATOM     16  C   UNL     1       8.131  -0.142   0.000  0.00  0.00    +0.000 C 
ATOM     17  C   UNL     1       7.417  -0.555   0.000  0.00  0.00    +0.000 C 
ATOM     18  C   UNL     1       8.846  -0.555   0.000  0.00  0.00    +0.000 C 
ATOM     19  C   UNL     1       8.846  -1.380   0.000  0.00  0.00    +0.000 C 
ATOM     20  C   UNL     1       8.131  -1.792   0.000  0.00  0.00    +0.000 C 
BRANCH  16  21
ATOM     21  O   UNL     1       8.131   0.683   0.000  0.00  0.00    +0.000 OA
BRANCH  21  26
ATOM     22  O   UNL     1       9.560   0.683   0.000  0.00  0.00    +0.000 OA
ATOM     23  O   UNL     1       8.131   2.333   0.000  0.00  0.00    +0.000 OA
ATOM     24  O   UNL     1       9.560   3.158   0.000  0.00  0.00    +0.000 OA
ATOM     25  O   UNL     1      10.989   2.333   0.000  0.00  0.00    +0.000 OA
ATOM     26  C   UNL     1       8.846   1.095   0.000  0.00  0.00    +0.000 C 
ATOM     27  C   UNL     1       8.846   1.920   0.000  0.00  0.00    +0.000 C 
ATOM     28  C   UNL     1       9.560   2.333   0.000  0.00  0.00    +0.000 C 
ATOM     29  C   UNL     1      10.275   1.920   0.000  0.00  0.00    +0.000 C 
ATOM     30  C   UNL     1      10.275   1.095   0.000  0.00  0.00    +0.000 C 
ENDBRANCH  21  26
ENDBRANCH  16  21
ENDBRANCH   4  17
BRANCH  12  32
ATOM     31  O   UNL     1       1.652   3.599   0.000  0.00  0.00    +0.000 OA
ATOM     32  C   UNL     1       3.800   2.370   0.000  0.00  0.00    +0.000 A 
ATOM     33  C   UNL     1       3.087   1.955   0.000  0.00  0.00    +0.000 A 
ATOM     34  C   UNL     1       3.797   3.195   0.000  0.00  0.00    +0.000 A 
ATOM     35  C   UNL     1       2.371   2.364   0.000  0.00  0.00    +0.000 A 
ATOM     36  C   UNL     1       3.081   3.605   0.000  0.00  0.00    +0.000 A 
ATOM     37  C   UNL     1       2.368   3.189   0.000  0.00  0.00    +0.000 A 
ENDBRANCH  12  32
BRANCH   5  38
ATOM     38  O   UNL     1       5.988  -1.380   0.000  0.00  0.00    +0.000 OA
BRANCH  38  45
ATOM     39  O   UNL     1       4.559  -1.380   0.000  0.00  0.00    +0.000 OA
ATOM     40  O   UNL     1       5.988  -3.030   0.000  0.00  0.00    +0.000 OA
ATOM     41  O   UNL     1       4.559  -3.855   0.000  0.00  0.00    +0.000 OA
ATOM     42  O   UNL     1       3.130  -3.030   0.000  0.00  0.00    +0.000 OA
ATOM     43  C   UNL     1       5.274  -2.617   0.000  0.00  0.00    +0.000 C 
ATOM     44  C   UNL     1       4.559  -3.030   0.000  0.00  0.00    +0.000 C 
ATOM     45  C   UNL     1       5.274  -1.792   0.000  0.00  0.00    +0.000 C 
ATOM     46  C   UNL     1       3.845  -2.617   0.000  0.00  0.00    +0.000 C 
ATOM     47  C   UNL     1       3.845  -1.792   0.000  0.00  0.00    +0.000 C 
BRANCH  47  49
ATOM     48  O   UNL     1       2.416  -1.792   0.000  0.00  0.00    +0.000 OA
ATOM     49  C   UNL     1       3.130  -1.380   0.000  0.00  0.00    +0.000 C 
ENDBRANCH  47  49
ENDBRANCH  38  45
ENDBRANCH   5  38
TORSDOF 7
