REMARK  Name = 44258890
REMARK  15 active torsions:
REMARK  status: ('A' for Active; 'I' for Inactive)
REMARK    1  A    between atoms: O_1  and  C_25
REMARK    2  A    between atoms: O_1  and  C_28
REMARK    3  A    between atoms: O_4  and  C_30
REMARK    4  A    between atoms: O_4  and  C_42
REMARK    5  A    between atoms: O_13  and  C_41
REMARK    6  A    between atoms: O_13  and  C_47
REMARK    7  A    between atoms: O_14  and  C_39
REMARK    8  A    between atoms: O_14  and  C_53
REMARK    9  A    between atoms: O_23  and  C_64
REMARK   10  A    between atoms: C_31  and  C_35
REMARK   11  A    between atoms: C_34  and  C_36
REMARK   12  A    between atoms: C_40  and  C_43
REMARK   13  A    between atoms: C_44  and  C_51
REMARK   14  A    between atoms: C_53  and  C_56
REMARK   15  A    between atoms: C_60  and  C_61
REMARK                            x       y       z     vdW  Elec       q    Type
REMARK                         _______ _______ _______ _____ _____    ______ ____
ROOT
ATOM      1  O   UNL     1       6.394  -0.926   0.000  0.00  0.00    +0.000 OA
ATOM      2  O   UNL     1       4.250  -2.164   0.000  0.00  0.00    +0.000 OA
ATOM      3  O   UNL     1       3.505  -0.929   0.000  0.00  0.00    +0.000 OA
ATOM      4  C   UNL     1       5.679  -2.164   0.000  0.00  0.00    +0.000 A 
ATOM      5  C   UNL     1       6.394  -1.751   0.000  0.00  0.00    +0.000 A 
ATOM      6  C   UNL     1       4.965  -1.751   0.000  0.00  0.00    +0.000 A 
ATOM      7  C   UNL     1       4.965  -0.926   0.000  0.00  0.00    +0.000 A 
ATOM      8  C   UNL     1       4.952   0.781   0.000  0.00  0.00    +0.000 A 
ATOM      9  C   UNL     1       5.679  -0.514   0.000  0.00  0.00    +0.000 A 
ATOM     10  C   UNL     1       5.693   0.345   0.000  0.00  0.00    +0.000 A 
ATOM     11  C   UNL     1       4.214  -0.508   0.000  0.00  0.00    +0.000 A 
ATOM     12  C   UNL     1       4.208   0.351   0.000  0.00  0.00    +0.000 A 
ENDROOT
BRANCH   5  14
ATOM     13  O   UNL     1       9.252  -3.401   0.000  0.00  0.00    +0.000 OA
ATOM     14  C   UNL     1       7.108  -2.164   0.000  0.00  0.00    +0.000 A 
ATOM     15  C   UNL     1       7.108  -2.989   0.000  0.00  0.00    +0.000 A 
ATOM     16  C   UNL     1       7.823  -1.751   0.000  0.00  0.00    +0.000 A 
ATOM     17  C   UNL     1       7.823  -3.401   0.000  0.00  0.00    +0.000 A 
ATOM     18  C   UNL     1       8.537  -2.164   0.000  0.00  0.00    +0.000 A 
ATOM     19  C   UNL     1       8.537  -2.989   0.000  0.00  0.00    +0.000 A 
ENDBRANCH   5  14
BRANCH   4  20
ATOM     20  O   UNL     1       5.679  -2.989   0.000  0.00  0.00    +0.000 OA
BRANCH  20  27
ATOM     21  O   UNL     1       4.250  -2.989   0.000  0.00  0.00    +0.000 OA
ATOM     22  O   UNL     1       4.250  -5.464   0.000  0.00  0.00    +0.000 OA
ATOM     23  O   UNL     1       2.822  -4.639   0.000  0.00  0.00    +0.000 OA
ATOM     24  C   UNL     1       4.965  -4.226   0.000  0.00  0.00    +0.000 C 
ATOM     25  C   UNL     1       4.250  -4.639   0.000  0.00  0.00    +0.000 C 
ATOM     26  C   UNL     1       3.536  -4.226   0.000  0.00  0.00    +0.000 C 
ATOM     27  C   UNL     1       4.965  -3.401   0.000  0.00  0.00    +0.000 C 
ATOM     28  C   UNL     1       3.536  -3.401   0.000  0.00  0.00    +0.000 C 
BRANCH  28  30
ATOM     29  O   UNL     1       2.107  -3.401   0.000  0.00  0.00    +0.000 OA
ATOM     30  C   UNL     1       2.822  -2.989   0.000  0.00  0.00    +0.000 C 
ENDBRANCH  28  30
BRANCH  24  31
ATOM     31  O   UNL     1       5.679  -4.639   0.000  0.00  0.00    +0.000 OA
BRANCH  31  36
ATOM     32  O   UNL     1       4.965  -5.876   0.000  0.00  0.00    +0.000 OA
ATOM     33  O   UNL     1       7.108  -5.464   0.000  0.00  0.00    +0.000 OA
ATOM     34  O   UNL     1       7.108  -7.114   0.000  0.00  0.00    +0.000 OA
ATOM     35  O   UNL     1       5.679  -7.939   0.000  0.00  0.00    +0.000 OA
ATOM     36  C   UNL     1       5.679  -5.464   0.000  0.00  0.00    +0.000 C 
ATOM     37  C   UNL     1       6.394  -5.876   0.000  0.00  0.00    +0.000 C 
ATOM     38  C   UNL     1       6.394  -6.701   0.000  0.00  0.00    +0.000 C 
ATOM     39  C   UNL     1       5.679  -7.114   0.000  0.00  0.00    +0.000 C 
ATOM     40  C   UNL     1       4.965  -6.701   0.000  0.00  0.00    +0.000 C 
BRANCH  40  42
ATOM     41  O   UNL     1       3.536  -6.701   0.000  0.00  0.00    +0.000 OA
ATOM     42  C   UNL     1       4.250  -7.114   0.000  0.00  0.00    +0.000 C 
ENDBRANCH  40  42
ENDBRANCH  31  36
ENDBRANCH  24  31
ENDBRANCH  20  27
ENDBRANCH   4  20
BRANCH   8  43
ATOM     43  O   UNL     1       4.955   1.606   0.000  0.00  0.00    +0.000 OA
BRANCH  43  51
ATOM     44  O   UNL     1       3.526   1.611   0.000  0.00  0.00    +0.000 OA
ATOM     45  O   UNL     1       3.536   4.086   0.000  0.00  0.00    +0.000 OA
ATOM     46  O   UNL     1       2.103   3.267   0.000  0.00  0.00    +0.000 OA
ATOM     47  C   UNL     1       3.532   3.261   0.000  0.00  0.00    +0.000 C 
ATOM     48  C   UNL     1       2.816   2.851   0.000  0.00  0.00    +0.000 C 
ATOM     49  C   UNL     1       4.245   2.846   0.000  0.00  0.00    +0.000 C 
ATOM     50  C   UNL     1       2.813   2.026   0.000  0.00  0.00    +0.000 C 
ATOM     51  C   UNL     1       4.242   2.021   0.000  0.00  0.00    +0.000 C 
BRANCH  50  53
ATOM     52  O   UNL     1       2.094   0.792   0.000  0.00  0.00    +0.000 OA
ATOM     53  C   UNL     1       2.097   1.617   0.000  0.00  0.00    +0.000 C 
ENDBRANCH  50  53
BRANCH  49  54
ATOM     54  O   UNL     1       4.961   3.256   0.000  0.00  0.00    +0.000 OA
BRANCH  54  56
ATOM     55  O   UNL     1       4.252   4.496   0.000  0.00  0.00    +0.000 OA
ATOM     56  C   UNL     1       4.965   4.081   0.000  0.00  0.00    +0.000 C 
BRANCH  56  57
ATOM     57  C   UNL     1       5.681   4.490   0.000  0.00  0.00    +0.000 C 
ATOM     58  C   UNL     1       5.684   5.316   0.000  0.00  0.00    +0.000 C 
BRANCH  58  60
ATOM     59  O   UNL     1       8.548   6.954   0.000  0.00  0.00    +0.000 OA
ATOM     60  C   UNL     1       6.400   5.725   0.000  0.00  0.00    +0.000 A 
ATOM     61  C   UNL     1       6.403   6.550   0.000  0.00  0.00    +0.000 A 
ATOM     62  C   UNL     1       7.113   5.310   0.000  0.00  0.00    +0.000 A 
ATOM     63  C   UNL     1       7.119   6.960   0.000  0.00  0.00    +0.000 A 
ATOM     64  C   UNL     1       7.829   5.720   0.000  0.00  0.00    +0.000 A 
ATOM     65  C   UNL     1       7.832   6.545   0.000  0.00  0.00    +0.000 A 
BRANCH  63  66
ATOM     66  O   UNL     1       7.122   7.785   0.000  0.00  0.00    +0.000 OA
ATOM     67  C   UNL     1       7.838   8.195   0.000  0.00  0.00    +0.000 C 
ENDBRANCH  63  66
ENDBRANCH  58  60
ENDBRANCH  56  57
ENDBRANCH  54  56
ENDBRANCH  49  54
ENDBRANCH  43  51
ENDBRANCH   8  43
TORSDOF 15
