REMARK  Name = 44257592
REMARK  8 active torsions:
REMARK  status: ('A' for Active; 'I' for Inactive)
REMARK    1  A    between atoms: O_2  and  C_21
REMARK    2  A    between atoms: O_2  and  C_25
REMARK    3  A    between atoms: O_6  and  C_24
REMARK    4  A    between atoms: O_6  and  C_28
REMARK    5  A    between atoms: O_11  and  C_29
REMARK    6  A    between atoms: O_15  and  C_43
REMARK    7  A    between atoms: C_16  and  C_25
REMARK    8  A    between atoms: C_35  and  C_38
REMARK                            x       y       z     vdW  Elec       q    Type
REMARK                         _______ _______ _______ _____ _____    ______ ____
ROOT
ATOM      1  O   UNL     1       7.418   0.526   0.000  0.00  0.00    +0.000 OA
ENDROOT
BRANCH   1   5
ATOM      2  O   UNL     1       4.524   2.182   0.000  0.00  0.00    +0.000 OA
ATOM      3  O   UNL     1       4.560   0.526   0.000  0.00  0.00    +0.000 OA
ATOM      4  O   UNL     1       6.722   3.439   0.000  0.00  0.00    +0.000 OA
ATOM      5  C   UNL     1       6.704   0.938   0.000  0.00  0.00    +0.000 A 
ATOM      6  C   UNL     1       5.989   0.526   0.000  0.00  0.00    +0.000 A 
ATOM      7  C   UNL     1       6.704   1.763   0.000  0.00  0.00    +0.000 A 
ATOM      8  C   UNL     1       5.989   2.176   0.000  0.00  0.00    +0.000 A 
ATOM      9  C   UNL     1       5.275   0.938   0.000  0.00  0.00    +0.000 A 
ATOM     10  C   UNL     1       5.275   1.763   0.000  0.00  0.00    +0.000 A 
ATOM     11  C   UNL     1       6.003   3.035   0.000  0.00  0.00    +0.000 A 
ATOM     12  C   UNL     1       4.517   3.041   0.000  0.00  0.00    +0.000 A 
ATOM     13  C   UNL     1       5.262   3.470   0.000  0.00  0.00    +0.000 A 
BRANCH  12  14
ATOM     14  C   UNL     1       3.801   3.451   0.000  0.00  0.00    +0.000 A 
ATOM     15  C   UNL     1       3.088   3.035   0.000  0.00  0.00    +0.000 A 
ATOM     16  C   UNL     1       3.798   4.276   0.000  0.00  0.00    +0.000 A 
ATOM     17  C   UNL     1       2.373   3.445   0.000  0.00  0.00    +0.000 A 
ATOM     18  C   UNL     1       3.082   4.685   0.000  0.00  0.00    +0.000 A 
ATOM     19  C   UNL     1       2.369   4.270   0.000  0.00  0.00    +0.000 A 
BRANCH  19  20
ATOM     20  O   UNL     1       1.653   4.680   0.000  0.00  0.00    +0.000 OA
ATOM     21  C   UNL     1       1.650   5.505   0.000  0.00  0.00    +0.000 C 
ENDBRANCH  19  20
ENDBRANCH  12  14
BRANCH   6  22
ATOM     22  O   UNL     1       5.989  -0.299   0.000  0.00  0.00    +0.000 OA
ATOM     23  C   UNL     1       5.275  -0.712   0.000  0.00  0.00    +0.000 C 
ENDBRANCH   6  22
ENDBRANCH   1   5
BRANCH   1  32
ATOM     24  O   UNL     1       6.704  -0.712   0.000  0.00  0.00    +0.000 OA
ATOM     25  O   UNL     1       7.418  -2.774   0.000  0.00  0.00    +0.000 OA
ATOM     26  O   UNL     1       8.847  -1.949   0.000  0.00  0.00    +0.000 OA
ATOM     27  O   UNL     1       8.847  -0.299   0.000  0.00  0.00    +0.000 OA
ATOM     28  C   UNL     1       6.704  -1.537   0.000  0.00  0.00    +0.000 C 
ATOM     29  C   UNL     1       7.418  -1.949   0.000  0.00  0.00    +0.000 C 
ATOM     30  C   UNL     1       8.133  -1.537   0.000  0.00  0.00    +0.000 C 
ATOM     31  C   UNL     1       8.133  -0.712   0.000  0.00  0.00    +0.000 C 
ATOM     32  C   UNL     1       7.418  -0.299   0.000  0.00  0.00    +0.000 C 
BRANCH  28  33
ATOM     33  C   UNL     1       5.989  -1.949   0.000  0.00  0.00    +0.000 C 
BRANCH  33  34
ATOM     34  O   UNL     1       5.989  -2.774   0.000  0.00  0.00    +0.000 OA
BRANCH  34  40
ATOM     35  O   UNL     1       4.560  -2.774   0.000  0.00  0.00    +0.000 OA
ATOM     36  O   UNL     1       5.989  -4.424   0.000  0.00  0.00    +0.000 OA
ATOM     37  O   UNL     1       4.560  -5.249   0.000  0.00  0.00    +0.000 OA
ATOM     38  O   UNL     1       3.131  -4.424   0.000  0.00  0.00    +0.000 OA
ATOM     39  C   UNL     1       5.275  -4.012   0.000  0.00  0.00    +0.000 C 
ATOM     40  C   UNL     1       5.275  -3.187   0.000  0.00  0.00    +0.000 C 
ATOM     41  C   UNL     1       4.560  -4.424   0.000  0.00  0.00    +0.000 C 
ATOM     42  C   UNL     1       3.846  -4.012   0.000  0.00  0.00    +0.000 C 
ATOM     43  C   UNL     1       3.846  -3.187   0.000  0.00  0.00    +0.000 C 
ATOM     44  C   UNL     1       3.131  -2.774   0.000  0.00  0.00    +0.000 C 
ENDBRANCH  34  40
ENDBRANCH  33  34
ENDBRANCH  28  33
ENDBRANCH   1  32
TORSDOF 8
