REMARK  Name = 44259018
REMARK  10 active torsions:
REMARK  status: ('A' for Active; 'I' for Inactive)
REMARK    1  A    between atoms: O_1  and  C_19
REMARK    2  A    between atoms: O_1  and  C_22
REMARK    3  A    between atoms: O_5  and  C_24
REMARK    4  A    between atoms: O_5  and  C_31
REMARK    5  A    between atoms: O_10  and  C_29
REMARK    6  A    between atoms: O_10  and  C_34
REMARK    7  A    between atoms: C_23  and  C_29
REMARK    8  A    between atoms: C_32  and  C_36
REMARK    9  A    between atoms: C_34  and  C_38
REMARK   10  A    between atoms: C_38  and  C_45
REMARK                            x       y       z     vdW  Elec       q    Type
REMARK                         _______ _______ _______ _____ _____    ______ ____
ROOT
ATOM      1  O   UNL     1       7.094   0.177   0.000  0.00  0.00    +0.000 OA
ATOM      2  O   UNL     1       7.094  -2.298   0.000  0.00  0.00    +0.000 OA
ATOM      3  O   UNL     1       5.665  -1.473   0.000  0.00  0.00    +0.000 OA
ATOM      4  C   UNL     1       7.809  -1.061   0.000  0.00  0.00    +0.000 C 
ATOM      5  C   UNL     1       7.094  -1.473   0.000  0.00  0.00    +0.000 C 
ATOM      6  C   UNL     1       6.380  -1.061   0.000  0.00  0.00    +0.000 C 
ATOM      7  C   UNL     1       6.380  -0.236   0.000  0.00  0.00    +0.000 C 
ATOM      8  C   UNL     1       7.809  -0.236   0.000  0.00  0.00    +0.000 C 
ENDROOT
BRANCH   4   9
ATOM      9  O   UNL     1       8.523  -1.473   0.000  0.00  0.00    +0.000 OA
BRANCH   9  14
ATOM     10  O   UNL     1       7.809  -2.711   0.000  0.00  0.00    +0.000 OA
ATOM     11  O   UNL     1       9.952  -2.298   0.000  0.00  0.00    +0.000 OA
ATOM     12  O   UNL     1       9.952  -3.948   0.000  0.00  0.00    +0.000 OA
ATOM     13  O   UNL     1       8.523  -4.773   0.000  0.00  0.00    +0.000 OA
ATOM     14  C   UNL     1       8.523  -2.298   0.000  0.00  0.00    +0.000 C 
ATOM     15  C   UNL     1       9.238  -2.711   0.000  0.00  0.00    +0.000 C 
ATOM     16  C   UNL     1       9.238  -3.536   0.000  0.00  0.00    +0.000 C 
ATOM     17  C   UNL     1       8.523  -3.948   0.000  0.00  0.00    +0.000 C 
ATOM     18  C   UNL     1       7.809  -3.536   0.000  0.00  0.00    +0.000 C 
ATOM     19  C   UNL     1       7.094  -3.948   0.000  0.00  0.00    +0.000 C 
ENDBRANCH   9  14
ENDBRANCH   4   9
BRANCH   8  20
ATOM     20  O   UNL     1       8.523   0.177   0.000  0.00  0.00    +0.000 OA
BRANCH  20  25
ATOM     21  O   UNL     1       9.238   2.239   0.000  0.00  0.00    +0.000 OA
ATOM     22  O   UNL     1       7.094   1.002   0.000  0.00  0.00    +0.000 OA
ATOM     23  O   UNL     1       6.348   2.237   0.000  0.00  0.00    +0.000 OA
ATOM     24  O   UNL     1       7.799   4.771   0.000  0.00  0.00    +0.000 OA
ATOM     25  C   UNL     1       8.523   1.002   0.000  0.00  0.00    +0.000 A 
ATOM     26  C   UNL     1       9.238   1.414   0.000  0.00  0.00    +0.000 A 
ATOM     27  C   UNL     1       7.809   1.414   0.000  0.00  0.00    +0.000 A 
ATOM     28  C   UNL     1       7.809   2.239   0.000  0.00  0.00    +0.000 A 
ATOM     29  C   UNL     1       8.523   2.652   0.000  0.00  0.00    +0.000 A 
ATOM     30  C   UNL     1       7.058   2.658   0.000  0.00  0.00    +0.000 A 
ATOM     31  C   UNL     1       8.536   3.511   0.000  0.00  0.00    +0.000 A 
ATOM     32  C   UNL     1       7.051   3.517   0.000  0.00  0.00    +0.000 A 
ATOM     33  C   UNL     1       7.796   3.946   0.000  0.00  0.00    +0.000 A 
BRANCH  26  35
ATOM     34  O   UNL     1      12.096  -0.236   0.000  0.00  0.00    +0.000 OA
ATOM     35  C   UNL     1       9.952   1.002   0.000  0.00  0.00    +0.000 A 
ATOM     36  C   UNL     1       9.952   0.177   0.000  0.00  0.00    +0.000 A 
ATOM     37  C   UNL     1      10.667   1.414   0.000  0.00  0.00    +0.000 A 
ATOM     38  C   UNL     1      10.667  -0.236   0.000  0.00  0.00    +0.000 A 
ATOM     39  C   UNL     1      11.381   1.002   0.000  0.00  0.00    +0.000 A 
ATOM     40  C   UNL     1      11.381   0.177   0.000  0.00  0.00    +0.000 A 
ENDBRANCH  26  35
ENDBRANCH  20  25
ENDBRANCH   8  20
BRANCH   7  41
ATOM     41  C   UNL     1       5.665   0.177   0.000  0.00  0.00    +0.000 C 
BRANCH  41  42
ATOM     42  O   UNL     1       4.951  -0.236   0.000  0.00  0.00    +0.000 OA
BRANCH  42  44
ATOM     43  O   UNL     1       4.236   1.002   0.000  0.00  0.00    +0.000 OA
ATOM     44  C   UNL     1       4.236   0.177   0.000  0.00  0.00    +0.000 C 
BRANCH  44  45
ATOM     45  C   UNL     1       3.522  -0.236   0.000  0.00  0.00    +0.000 C 
BRANCH  45  48
ATOM     46  O   UNL     1       2.093  -0.236   0.000  0.00  0.00    +0.000 OA
ATOM     47  O   UNL     1       2.808   1.002   0.000  0.00  0.00    +0.000 OA
ATOM     48  C   UNL     1       2.808   0.177   0.000  0.00  0.00    +0.000 C 
ENDBRANCH  45  48
ENDBRANCH  44  45
ENDBRANCH  42  44
ENDBRANCH  41  42
ENDBRANCH   7  41
TORSDOF 10
