REMARK  Name = 42607854
REMARK  10 active torsions:
REMARK  status: ('A' for Active; 'I' for Inactive)
REMARK    1  A    between atoms: O_2  and  C_18
REMARK    2  A    between atoms: O_2  and  C_20
REMARK    3  A    between atoms: O_6  and  C_19
REMARK    4  A    between atoms: O_6  and  C_31
REMARK    5  A    between atoms: C_16  and  C_19
REMARK    6  A    between atoms: C_25  and  C_34
REMARK    7  A    between atoms: C_29  and  C_30
REMARK    8  A    between atoms: C_29  and  C_35
REMARK    9  A    between atoms: C_30  and  C_31
REMARK   10  A    between atoms: C_35  and  C_39
REMARK                            x       y       z     vdW  Elec       q    Type
REMARK                         _______ _______ _______ _____ _____    ______ ____
ROOT
ATOM      1  O   UNL     1       9.952  -1.127   0.000  0.00  0.00    +0.000 OA
ENDROOT
BRANCH   1   5
ATOM      2  O   UNL     1      11.418   1.354   0.000  0.00  0.00    +0.000 OA
ATOM      3  O   UNL     1       8.523   1.348   0.000  0.00  0.00    +0.000 OA
ATOM      4  O   UNL     1       9.220   2.612   0.000  0.00  0.00    +0.000 OA
ATOM      5  C   UNL     1       9.952  -0.302   0.000  0.00  0.00    +0.000 A 
ATOM      6  C   UNL     1      10.667   0.111   0.000  0.00  0.00    +0.000 A 
ATOM      7  C   UNL     1       9.238   0.111   0.000  0.00  0.00    +0.000 A 
ATOM      8  C   UNL     1      10.667   0.936   0.000  0.00  0.00    +0.000 A 
ATOM      9  C   UNL     1       9.952   1.348   0.000  0.00  0.00    +0.000 A 
ATOM     10  C   UNL     1      11.424   2.213   0.000  0.00  0.00    +0.000 C 
ATOM     11  C   UNL     1       9.238   0.936   0.000  0.00  0.00    +0.000 A 
ATOM     12  C   UNL     1      10.680   2.643   0.000  0.00  0.00    +0.000 C 
ATOM     13  C   UNL     1       9.939   2.207   0.000  0.00  0.00    +0.000 C 
ATOM     14  C   UNL     1      11.381  -0.302   0.000  0.00  0.00    +0.000 C 
ATOM     15  C   UNL     1       8.523  -0.302   0.000  0.00  0.00    +0.000 C 
BRANCH  10  16
ATOM     16  C   UNL     1      12.140   2.623   0.000  0.00  0.00    +0.000 A 
ATOM     17  C   UNL     1      12.143   3.448   0.000  0.00  0.00    +0.000 A 
ATOM     18  C   UNL     1      12.853   2.208   0.000  0.00  0.00    +0.000 A 
ATOM     19  C   UNL     1      12.859   3.858   0.000  0.00  0.00    +0.000 A 
ATOM     20  C   UNL     1      13.569   2.617   0.000  0.00  0.00    +0.000 A 
ATOM     21  C   UNL     1      13.572   3.442   0.000  0.00  0.00    +0.000 A 
ENDBRANCH  10  16
ENDBRANCH   1   5
BRANCH   1  30
ATOM     22  O   UNL     1       8.523  -1.127   0.000  0.00  0.00    +0.000 OA
ATOM     23  O   UNL     1       7.094  -2.777   0.000  0.00  0.00    +0.000 OA
ATOM     24  O   UNL     1       8.523  -3.602   0.000  0.00  0.00    +0.000 OA
ATOM     25  O   UNL     1       9.952  -2.777   0.000  0.00  0.00    +0.000 OA
ATOM     26  C   UNL     1       7.809  -2.364   0.000  0.00  0.00    +0.000 C 
ATOM     27  C   UNL     1       8.523  -2.777   0.000  0.00  0.00    +0.000 C 
ATOM     28  C   UNL     1       7.809  -1.539   0.000  0.00  0.00    +0.000 C 
ATOM     29  C   UNL     1       9.238  -2.364   0.000  0.00  0.00    +0.000 C 
ATOM     30  C   UNL     1       9.238  -1.539   0.000  0.00  0.00    +0.000 C 
BRANCH  28  31
ATOM     31  C   UNL     1       7.094  -1.127   0.000  0.00  0.00    +0.000 C 
BRANCH  31  32
ATOM     32  O   UNL     1       6.380  -1.539   0.000  0.00  0.00    +0.000 OA
BRANCH  32  34
ATOM     33  O   UNL     1       5.665  -0.302   0.000  0.00  0.00    +0.000 OA
ATOM     34  C   UNL     1       5.665  -1.127   0.000  0.00  0.00    +0.000 C 
BRANCH  34  35
ATOM     35  C   UNL     1       4.951  -1.539   0.000  0.00  0.00    +0.000 C 
BRANCH  35  37
ATOM     36  O   UNL     1       3.824  -1.841   0.000  0.00  0.00    +0.000 OA
ATOM     37  C   UNL     1       4.236  -1.127   0.000  0.00  0.00    +0.000 C 
ATOM     38  C   UNL     1       4.649  -0.412   0.000  0.00  0.00    +0.000 C 
BRANCH  37  39
ATOM     39  C   UNL     1       3.522  -0.714   0.000  0.00  0.00    +0.000 C 
BRANCH  39  42
ATOM     40  O   UNL     1       2.093  -0.714   0.000  0.00  0.00    +0.000 OA
ATOM     41  O   UNL     1       2.808  -1.952   0.000  0.00  0.00    +0.000 OA
ATOM     42  C   UNL     1       2.808  -1.127   0.000  0.00  0.00    +0.000 C 
ENDBRANCH  39  42
ENDBRANCH  37  39
ENDBRANCH  35  37
ENDBRANCH  34  35
ENDBRANCH  32  34
ENDBRANCH  31  32
ENDBRANCH  28  31
ENDBRANCH   1  30
TORSDOF 10
