REMARK  Name = 44257089
REMARK  4 active torsions:
REMARK  status: ('A' for Active; 'I' for Inactive)
REMARK    1  A    between atoms: O_2  and  C_16
REMARK    2  A    between atoms: O_2  and  C_23
REMARK    3  A    between atoms: C_15  and  C_17
REMARK    4  A    between atoms: C_18  and  C_21
REMARK                            x       y       z     vdW  Elec       q    Type
REMARK                         _______ _______ _______ _____ _____    ______ ____
ROOT
ATOM      1  O   UNL     1       4.236  -1.178   0.000  0.00  0.00    +0.000 OA
ATOM      2  C   UNL     1       5.665   0.472   0.000  0.00  0.00    +0.000 A 
ATOM      3  C   UNL     1       5.665  -1.178   0.000  0.00  0.00    +0.000 A 
ATOM      4  C   UNL     1       4.951   0.060   0.000  0.00  0.00    +0.000 A 
ATOM      5  C   UNL     1       6.380   0.060   0.000  0.00  0.00    +0.000 A 
ATOM      6  C   UNL     1       4.951  -0.765   0.000  0.00  0.00    +0.000 A 
ATOM      7  C   UNL     1       6.380  -0.765   0.000  0.00  0.00    +0.000 A 
ENDROOT
BRANCH   2  12
ATOM      8  O   UNL     1       6.380   1.710   0.000  0.00  0.00    +0.000 OA
ATOM      9  O   UNL     1       4.236   1.297   0.000  0.00  0.00    +0.000 OA
ATOM     10  O   UNL     1       4.933   4.211   0.000  0.00  0.00    +0.000 OA
ATOM     11  O   UNL     1       7.853   4.222   0.000  0.00  0.00    +0.000 OA
ATOM     12  C   UNL     1       5.665   1.297   0.000  0.00  0.00    +0.000 C 
ATOM     13  C   UNL     1       4.951   1.710   0.000  0.00  0.00    +0.000 C 
ATOM     14  C   UNL     1       4.951   2.535   0.000  0.00  0.00    +0.000 C 
ATOM     15  C   UNL     1       5.665   2.947   0.000  0.00  0.00    +0.000 A 
ATOM     16  C   UNL     1       6.380   2.535   0.000  0.00  0.00    +0.000 A 
ATOM     17  C   UNL     1       5.652   3.807   0.000  0.00  0.00    +0.000 A 
ATOM     18  C   UNL     1       7.131   2.953   0.000  0.00  0.00    +0.000 A 
ATOM     19  C   UNL     1       6.393   4.242   0.000  0.00  0.00    +0.000 A 
ATOM     20  C   UNL     1       7.137   3.812   0.000  0.00  0.00    +0.000 A 
ENDBRANCH   2  12
BRANCH   3  21
ATOM     21  O   UNL     1       5.665  -2.003   0.000  0.00  0.00    +0.000 OA
BRANCH  21  30
ATOM     22  O   UNL     1       4.236  -2.003   0.000  0.00  0.00    +0.000 OA
ATOM     23  O   UNL     1       4.236  -4.478   0.000  0.00  0.00    +0.000 OA
ATOM     24  O   UNL     1       2.808  -3.653   0.000  0.00  0.00    +0.000 OA
ATOM     25  O   UNL     1       5.665  -3.653   0.000  0.00  0.00    +0.000 OA
ATOM     26  C   UNL     1       4.236  -3.653   0.000  0.00  0.00    +0.000 C 
ATOM     27  C   UNL     1       3.522  -3.240   0.000  0.00  0.00    +0.000 C 
ATOM     28  C   UNL     1       4.951  -3.240   0.000  0.00  0.00    +0.000 C 
ATOM     29  C   UNL     1       3.522  -2.415   0.000  0.00  0.00    +0.000 C 
ATOM     30  C   UNL     1       4.951  -2.415   0.000  0.00  0.00    +0.000 C 
BRANCH  29  32
ATOM     31  O   UNL     1       2.093  -2.415   0.000  0.00  0.00    +0.000 OA
ATOM     32  C   UNL     1       2.808  -2.003   0.000  0.00  0.00    +0.000 C 
ENDBRANCH  29  32
ENDBRANCH  21  30
ENDBRANCH   3  21
TORSDOF 4
