REMARK  Name = 147157
REMARK  2 active torsions:
REMARK  status: ('A' for Active; 'I' for Inactive)
REMARK    1  A    between atoms: O_2  and  C_12
REMARK    2  A    between atoms: C_6  and  C_8
REMARK                            x       y       z     vdW  Elec       q    Type
REMARK                         _______ _______ _______ _____ _____    ______ ____
ROOT
ATOM      1  O   UNL     1       5.278  -0.619   0.000  0.00  0.00    +0.000 OA
ATOM      2  O   UNL     1       5.278   1.856   0.000  0.00  0.00    +0.000 OA
ATOM      3  C   UNL     1       4.564   0.619   0.000  0.00  0.00    +0.000 A 
ATOM      4  C   UNL     1       4.564  -0.206   0.000  0.00  0.00    +0.000 A 
ATOM      5  C   UNL     1       5.993  -0.206   0.000  0.00  0.00    +0.000 A 
ATOM      6  C   UNL     1       5.278   1.031   0.000  0.00  0.00    +0.000 A 
ATOM      7  C   UNL     1       3.826   1.060   0.000  0.00  0.00    +0.000 A 
ATOM      8  C   UNL     1       5.993   0.619   0.000  0.00  0.00    +0.000 A 
ATOM      9  C   UNL     1       3.826  -0.647   0.000  0.00  0.00    +0.000 A 
ATOM     10  C   UNL     1       3.079   0.636   0.000  0.00  0.00    +0.000 A 
ATOM     11  C   UNL     1       3.079  -0.223   0.000  0.00  0.00    +0.000 A 
ENDROOT
BRANCH   5  12
ATOM     12  C   UNL     1       6.707  -0.619   0.000  0.00  0.00    +0.000 A 
ATOM     13  C   UNL     1       7.422  -0.206   0.000  0.00  0.00    +0.000 A 
ATOM     14  C   UNL     1       6.707  -1.444   0.000  0.00  0.00    +0.000 A 
ATOM     15  C   UNL     1       8.136  -0.619   0.000  0.00  0.00    +0.000 A 
ATOM     16  C   UNL     1       7.422  -1.856   0.000  0.00  0.00    +0.000 A 
ATOM     17  C   UNL     1       8.136  -1.444   0.000  0.00  0.00    +0.000 A 
ENDBRANCH   5  12
BRANCH  10  18
ATOM     18  O   UNL     1       2.366   1.051   0.000  0.00  0.00    +0.000 OA
ATOM     19  C   UNL     1       1.650   0.641   0.000  0.00  0.00    +0.000 C 
ENDBRANCH  10  18
TORSDOF 2
