REMARK  Name = 129625836
REMARK  7 active torsions:
REMARK  status: ('A' for Active; 'I' for Inactive)
REMARK    1  A    between atoms: O_2  and  C_15
REMARK    2  A    between atoms: O_2  and  C_20
REMARK    3  A    between atoms: O_3  and  C_17
REMARK    4  A    between atoms: O_3  and  C_19
REMARK    5  A    between atoms: C_20  and  C_26
REMARK    6  A    between atoms: C_21  and  C_25
REMARK    7  A    between atoms: C_32  and  C_36
REMARK                            x       y       z     vdW  Elec       q    Type
REMARK                         _______ _______ _______ _____ _____    ______ ____
ROOT
ATOM      1  O   UNL     1       4.951   0.511   0.000  0.00  0.00    +0.000 OA
ENDROOT
BRANCH   1   6
ATOM      2  O   UNL     1       5.665   2.573   0.000  0.00  0.00    +0.000 OA
ATOM      3  O   UNL     1       3.522   1.336   0.000  0.00  0.00    +0.000 OA
ATOM      4  O   UNL     1       2.776   2.571   0.000  0.00  0.00    +0.000 OA
ATOM      5  O   UNL     1       4.226   5.106   0.000  0.00  0.00    +0.000 OA
ATOM      6  C   UNL     1       4.951   1.336   0.000  0.00  0.00    +0.000 A 
ATOM      7  C   UNL     1       5.665   1.748   0.000  0.00  0.00    +0.000 A 
ATOM      8  C   UNL     1       4.236   1.748   0.000  0.00  0.00    +0.000 A 
ATOM      9  C   UNL     1       4.236   2.573   0.000  0.00  0.00    +0.000 A 
ATOM     10  C   UNL     1       4.951   2.986   0.000  0.00  0.00    +0.000 A 
ATOM     11  C   UNL     1       3.486   2.992   0.000  0.00  0.00    +0.000 A 
ATOM     12  C   UNL     1       4.964   3.845   0.000  0.00  0.00    +0.000 A 
ATOM     13  C   UNL     1       3.479   3.851   0.000  0.00  0.00    +0.000 A 
ATOM     14  C   UNL     1       4.223   4.281   0.000  0.00  0.00    +0.000 A 
BRANCH   7  16
ATOM     15  O   UNL     1       8.523   0.098   0.000  0.00  0.00    +0.000 OA
ATOM     16  C   UNL     1       6.380   1.336   0.000  0.00  0.00    +0.000 A 
ATOM     17  C   UNL     1       6.380   0.511   0.000  0.00  0.00    +0.000 A 
ATOM     18  C   UNL     1       7.094   1.748   0.000  0.00  0.00    +0.000 A 
ATOM     19  C   UNL     1       7.094   0.098   0.000  0.00  0.00    +0.000 A 
ATOM     20  C   UNL     1       7.809   1.336   0.000  0.00  0.00    +0.000 A 
ATOM     21  C   UNL     1       7.809   0.511   0.000  0.00  0.00    +0.000 A 
ENDBRANCH   7  16
ENDBRANCH   1   6
BRANCH   1  29
ATOM     22  O   UNL     1       3.522   0.511   0.000  0.00  0.00    +0.000 OA
ATOM     23  O   UNL     1       3.522  -1.964   0.000  0.00  0.00    +0.000 OA
ATOM     24  O   UNL     1       2.093  -1.139   0.000  0.00  0.00    +0.000 OA
ATOM     25  C   UNL     1       3.522  -1.139   0.000  0.00  0.00    +0.000 C 
ATOM     26  C   UNL     1       2.808  -0.727   0.000  0.00  0.00    +0.000 C 
ATOM     27  C   UNL     1       4.236  -0.727   0.000  0.00  0.00    +0.000 C 
ATOM     28  C   UNL     1       2.808   0.098   0.000  0.00  0.00    +0.000 C 
ATOM     29  C   UNL     1       4.236   0.098   0.000  0.00  0.00    +0.000 C 
ATOM     30  C   UNL     1       2.093   0.511   0.000  0.00  0.00    +0.000 C 
BRANCH  27  31
ATOM     31  O   UNL     1       4.951  -1.139   0.000  0.00  0.00    +0.000 OA
BRANCH  31  33
ATOM     32  O   UNL     1       4.236  -2.377   0.000  0.00  0.00    +0.000 OA
ATOM     33  C   UNL     1       4.951  -1.964   0.000  0.00  0.00    +0.000 C 
BRANCH  33  34
ATOM     34  C   UNL     1       5.665  -2.377   0.000  0.00  0.00    +0.000 C 
ATOM     35  C   UNL     1       5.665  -3.202   0.000  0.00  0.00    +0.000 C 
BRANCH  35  37
ATOM     36  O   UNL     1       8.523  -4.852   0.000  0.00  0.00    +0.000 OA
ATOM     37  C   UNL     1       6.380  -3.614   0.000  0.00  0.00    +0.000 A 
ATOM     38  C   UNL     1       7.094  -3.202   0.000  0.00  0.00    +0.000 A 
ATOM     39  C   UNL     1       6.380  -4.439   0.000  0.00  0.00    +0.000 A 
ATOM     40  C   UNL     1       7.809  -3.614   0.000  0.00  0.00    +0.000 A 
ATOM     41  C   UNL     1       7.094  -4.852   0.000  0.00  0.00    +0.000 A 
ATOM     42  C   UNL     1       7.809  -4.439   0.000  0.00  0.00    +0.000 A 
ENDBRANCH  35  37
ENDBRANCH  33  34
ENDBRANCH  31  33
ENDBRANCH  27  31
ENDBRANCH   1  29
TORSDOF 7
