REMARK  Name = 131833502
REMARK  3 active torsions:
REMARK  status: ('A' for Active; 'I' for Inactive)
REMARK    1  A    between atoms: C_14  and  C_17
REMARK    2  A    between atoms: C_16  and  C_18
REMARK    3  A    between atoms: C_25  and  C_27
REMARK                            x       y       z     vdW  Elec       q    Type
REMARK                         _______ _______ _______ _____ _____    ______ ____
ROOT
ATOM      1  O   UNL     1       4.974   0.384   0.000  0.00  0.00    +0.000 OA
ATOM      2  O   UNL     1       2.093   0.412   0.000  0.00  0.00    +0.000 OA
ATOM      3  O   UNL     1       2.093   2.062   0.000  0.00  0.00    +0.000 OA
ATOM      4  O   UNL     1       3.522   2.888   0.000  0.00  0.00    +0.000 OA
ATOM      5  O   UNL     1       4.964   2.916   0.000  0.00  0.00    +0.000 OA
ATOM      6  C   UNL     1       3.522   0.412   0.000  0.00  0.00    +0.000 A 
ATOM      7  C   UNL     1       4.236   0.825   0.000  0.00  0.00    +0.000 A 
ATOM      8  C   UNL     1       2.808   0.825   0.000  0.00  0.00    +0.000 A 
ATOM      9  C   UNL     1       4.236   1.650   0.000  0.00  0.00    +0.000 A 
ATOM     10  C   UNL     1       2.808   1.650   0.000  0.00  0.00    +0.000 A 
ATOM     11  C   UNL     1       3.522   2.062   0.000  0.00  0.00    +0.000 A 
ATOM     12  C   UNL     1       4.974   2.091   0.000  0.00  0.00    +0.000 A 
ATOM     13  C   UNL     1       5.721   0.808   0.000  0.00  0.00    +0.000 A 
ATOM     14  C   UNL     1       5.721   1.667   0.000  0.00  0.00    +0.000 A 
ENDROOT
BRANCH   6  21
ATOM     15  O   UNL     1       4.236  -0.825   0.000  0.00  0.00    +0.000 OA
ATOM     16  O   UNL     1       2.093  -0.412   0.000  0.00  0.00    +0.000 OA
ATOM     17  O   UNL     1       2.093  -2.062   0.000  0.00  0.00    +0.000 OA
ATOM     18  O   UNL     1       3.522  -2.888   0.000  0.00  0.00    +0.000 OA
ATOM     19  C   UNL     1       2.808  -0.825   0.000  0.00  0.00    +0.000 C 
ATOM     20  C   UNL     1       2.808  -1.650   0.000  0.00  0.00    +0.000 C 
ATOM     21  C   UNL     1       3.522  -0.412   0.000  0.00  0.00    +0.000 C 
ATOM     22  C   UNL     1       3.522  -2.062   0.000  0.00  0.00    +0.000 C 
ATOM     23  C   UNL     1       4.236  -1.650   0.000  0.00  0.00    +0.000 C 
BRANCH  23  25
ATOM     24  O   UNL     1       4.951  -2.888   0.000  0.00  0.00    +0.000 OA
ATOM     25  C   UNL     1       4.951  -2.062   0.000  0.00  0.00    +0.000 C 
ENDBRANCH  23  25
ENDBRANCH   6  21
BRANCH  13  27
ATOM     26  O   UNL     1       8.573  -0.853   0.000  0.00  0.00    +0.000 OA
ATOM     27  C   UNL     1       6.434   0.393   0.000  0.00  0.00    +0.000 A 
ATOM     28  C   UNL     1       7.150   0.802   0.000  0.00  0.00    +0.000 A 
ATOM     29  C   UNL     1       6.431  -0.432   0.000  0.00  0.00    +0.000 A 
ATOM     30  C   UNL     1       7.863   0.387   0.000  0.00  0.00    +0.000 A 
ATOM     31  C   UNL     1       7.144  -0.848   0.000  0.00  0.00    +0.000 A 
ATOM     32  C   UNL     1       7.860  -0.438   0.000  0.00  0.00    +0.000 A 
ENDBRANCH  13  27
TORSDOF 3
