REMARK  Name = 44259052
REMARK  3 active torsions:
REMARK  status: ('A' for Active; 'I' for Inactive)
REMARK    1  A    between atoms: S_1  and  O_3
REMARK    2  A    between atoms: O_3  and  C_14
REMARK    3  A    between atoms: C_12  and  C_16
REMARK                            x       y       z     vdW  Elec       q    Type
REMARK                         _______ _______ _______ _____ _____    ______ ____
ROOT
ATOM      1  O   UNL     1       5.006  -0.903   0.000  0.00  0.00    +0.000 OA
ATOM      2  O   UNL     1       3.564   1.600   0.000  0.00  0.00    +0.000 OA
ATOM      3  O   UNL     1       5.006   1.572   0.000  0.00  0.00    +0.000 OA
ATOM      4  O   UNL     1       2.094  -0.923   0.000  0.00  0.00    +0.000 OA
ATOM      5  C   UNL     1       4.292   0.334   0.000  0.00  0.00    +0.000 A 
ATOM      6  C   UNL     1       5.721  -0.491   0.000  0.00  0.00    +0.000 A 
ATOM      7  C   UNL     1       4.292  -0.491   0.000  0.00  0.00    +0.000 A 
ATOM      8  C   UNL     1       5.721   0.334   0.000  0.00  0.00    +0.000 A 
ATOM      9  C   UNL     1       5.006   0.747   0.000  0.00  0.00    +0.000 A 
ATOM     10  C   UNL     1       3.554   0.775   0.000  0.00  0.00    +0.000 A 
ATOM     11  C   UNL     1       3.554  -0.932   0.000  0.00  0.00    +0.000 A 
ATOM     12  C   UNL     1       2.807   0.351   0.000  0.00  0.00    +0.000 A 
ATOM     13  C   UNL     1       2.807  -0.508   0.000  0.00  0.00    +0.000 A 
ENDROOT
BRANCH   6  15
ATOM     14  O   UNL     1       8.579  -2.141   0.000  0.00  0.00    +0.000 OA
ATOM     15  C   UNL     1       6.435  -0.903   0.000  0.00  0.00    +0.000 A 
ATOM     16  C   UNL     1       7.150  -0.491   0.000  0.00  0.00    +0.000 A 
ATOM     17  C   UNL     1       6.435  -1.728   0.000  0.00  0.00    +0.000 A 
ATOM     18  C   UNL     1       7.864  -0.903   0.000  0.00  0.00    +0.000 A 
ATOM     19  C   UNL     1       7.150  -2.141   0.000  0.00  0.00    +0.000 A 
ATOM     20  C   UNL     1       7.864  -1.728   0.000  0.00  0.00    +0.000 A 
ENDBRANCH   6  15
BRANCH   8  21
ATOM     21  O   UNL     1       6.435   0.747   0.000  0.00  0.00    +0.000 OA
BRANCH  21  22
ATOM     22  S   UNL     1       6.435   1.572   0.000  0.00  0.00    +0.000 S 
ATOM     23  O   UNL     1       6.435   2.397   0.000  0.00  0.00    +0.000 OA
ATOM     24  O   UNL     1       7.260   1.572   0.000  0.00  0.00    +0.000 OA
ATOM     25  O   UNL     1       5.610   1.572   0.000  0.00  0.00    +0.000 OA
ENDBRANCH  21  22
ENDBRANCH   8  21
TORSDOF 3
