REMARK  Name = 44258673
REMARK  3 active torsions:
REMARK  status: ('A' for Active; 'I' for Inactive)
REMARK    1  A    between atoms: C_13  and  C_16
REMARK    2  A    between atoms: C_15  and  C_17
REMARK    3  A    between atoms: C_24  and  C_26
REMARK                            x       y       z     vdW  Elec       q    Type
REMARK                         _______ _______ _______ _____ _____    ______ ____
ROOT
ATOM      1  O   UNL     1       5.006   0.557   0.000  0.00  0.00    +0.000 OA
ATOM      2  O   UNL     1       2.094   0.537   0.000  0.00  0.00    +0.000 OA
ATOM      3  O   UNL     1       5.006   3.032   0.000  0.00  0.00    +0.000 OA
ATOM      4  O   UNL     1       6.435   2.207   0.000  0.00  0.00    +0.000 OA
ATOM      5  C   UNL     1       3.554   0.528   0.000  0.00  0.00    +0.000 A 
ATOM      6  C   UNL     1       4.292   0.970   0.000  0.00  0.00    +0.000 A 
ATOM      7  C   UNL     1       2.807   0.953   0.000  0.00  0.00    +0.000 A 
ATOM      8  C   UNL     1       4.292   1.795   0.000  0.00  0.00    +0.000 A 
ATOM      9  C   UNL     1       2.807   1.812   0.000  0.00  0.00    +0.000 A 
ATOM     10  C   UNL     1       3.554   2.236   0.000  0.00  0.00    +0.000 A 
ATOM     11  C   UNL     1       5.006   2.207   0.000  0.00  0.00    +0.000 A 
ATOM     12  C   UNL     1       5.721   0.970   0.000  0.00  0.00    +0.000 A 
ATOM     13  C   UNL     1       5.721   1.795   0.000  0.00  0.00    +0.000 A 
ENDROOT
BRANCH   5  20
ATOM     14  O   UNL     1       4.283  -0.701   0.000  0.00  0.00    +0.000 OA
ATOM     15  O   UNL     1       2.135  -0.313   0.000  0.00  0.00    +0.000 OA
ATOM     16  O   UNL     1       2.154  -1.963   0.000  0.00  0.00    +0.000 OA
ATOM     17  O   UNL     1       3.592  -2.771   0.000  0.00  0.00    +0.000 OA
ATOM     18  C   UNL     1       2.854  -0.717   0.000  0.00  0.00    +0.000 C 
ATOM     19  C   UNL     1       2.864  -1.542   0.000  0.00  0.00    +0.000 C 
ATOM     20  C   UNL     1       3.564  -0.296   0.000  0.00  0.00    +0.000 C 
ATOM     21  C   UNL     1       3.583  -1.946   0.000  0.00  0.00    +0.000 C 
ATOM     22  C   UNL     1       4.293  -1.526   0.000  0.00  0.00    +0.000 C 
BRANCH  22  24
ATOM     23  O   UNL     1       5.021  -2.755   0.000  0.00  0.00    +0.000 OA
ATOM     24  C   UNL     1       5.012  -1.930   0.000  0.00  0.00    +0.000 C 
ENDBRANCH  22  24
ENDBRANCH   5  20
BRANCH  12  26
ATOM     25  O   UNL     1       8.579  -0.680   0.000  0.00  0.00    +0.000 OA
ATOM     26  C   UNL     1       6.435   0.557   0.000  0.00  0.00    +0.000 A 
ATOM     27  C   UNL     1       7.150   0.970   0.000  0.00  0.00    +0.000 A 
ATOM     28  C   UNL     1       6.435  -0.268   0.000  0.00  0.00    +0.000 A 
ATOM     29  C   UNL     1       7.864   0.557   0.000  0.00  0.00    +0.000 A 
ATOM     30  C   UNL     1       7.150  -0.680   0.000  0.00  0.00    +0.000 A 
ATOM     31  C   UNL     1       7.864  -0.268   0.000  0.00  0.00    +0.000 A 
ENDBRANCH  12  26
TORSDOF 3
