REMARK  Name = 131752208
REMARK  3 active torsions:
REMARK  status: ('A' for Active; 'I' for Inactive)
REMARK    1  A    between atoms: O_2  and  C_14
REMARK    2  A    between atoms: O_2  and  C_16
REMARK    3  A    between atoms: C_18  and  C_23
REMARK                            x       y       z     vdW  Elec       q    Type
REMARK                         _______ _______ _______ _____ _____    ______ ____
ROOT
ATOM      1  O   UNL     1       6.422   2.002   0.000  0.00  0.00    +0.000 OA
ATOM      2  O   UNL     1       6.394  -0.472   0.000  0.00  0.00    +0.000 OA
ATOM      3  O   UNL     1       3.510   2.056   0.000  0.00  0.00    +0.000 OA
ATOM      4  C   UNL     1       4.951   0.341   0.000  0.00  0.00    +0.000 A 
ATOM      5  C   UNL     1       5.693   0.773   0.000  0.00  0.00    +0.000 A 
ATOM      6  C   UNL     1       7.132   1.582   0.000  0.00  0.00    +0.000 C 
ATOM      7  C   UNL     1       7.122   0.757   0.000  0.00  0.00    +0.000 C 
ATOM      8  C   UNL     1       5.703   1.598   0.000  0.00  0.00    +0.000 A 
ATOM      9  C   UNL     1       6.403   0.352   0.000  0.00  0.00    +0.000 C 
ATOM     10  C   UNL     1       4.208   0.773   0.000  0.00  0.00    +0.000 A 
ATOM     11  C   UNL     1       4.971   2.048   0.000  0.00  0.00    +0.000 A 
ATOM     12  C   UNL     1       4.218   1.633   0.000  0.00  0.00    +0.000 A 
ENDROOT
BRANCH   6  14
ATOM     13  O   UNL     1      10.009   3.199   0.000  0.00  0.00    +0.000 OA
ATOM     14  C   UNL     1       7.851   1.986   0.000  0.00  0.00    +0.000 A 
ATOM     15  C   UNL     1       7.861   2.811   0.000  0.00  0.00    +0.000 A 
ATOM     16  C   UNL     1       8.561   1.565   0.000  0.00  0.00    +0.000 A 
ATOM     17  C   UNL     1       8.580   3.215   0.000  0.00  0.00    +0.000 A 
ATOM     18  C   UNL     1       9.280   1.969   0.000  0.00  0.00    +0.000 A 
ATOM     19  C   UNL     1       9.289   2.794   0.000  0.00  0.00    +0.000 A 
ENDBRANCH   6  14
BRANCH   4  20
ATOM     20  O   UNL     1       4.951  -0.484   0.000  0.00  0.00    +0.000 OA
BRANCH  20  29
ATOM     21  O   UNL     1       3.522  -0.484   0.000  0.00  0.00    +0.000 OA
ATOM     22  O   UNL     1       3.522  -2.959   0.000  0.00  0.00    +0.000 OA
ATOM     23  O   UNL     1       2.093  -2.134   0.000  0.00  0.00    +0.000 OA
ATOM     24  O   UNL     1       4.951  -2.134   0.000  0.00  0.00    +0.000 OA
ATOM     25  C   UNL     1       3.522  -2.134   0.000  0.00  0.00    +0.000 C 
ATOM     26  C   UNL     1       2.808  -1.722   0.000  0.00  0.00    +0.000 C 
ATOM     27  C   UNL     1       4.236  -1.722   0.000  0.00  0.00    +0.000 C 
ATOM     28  C   UNL     1       2.808  -0.897   0.000  0.00  0.00    +0.000 C 
ATOM     29  C   UNL     1       4.236  -0.897   0.000  0.00  0.00    +0.000 C 
ATOM     30  C   UNL     1       2.093  -0.484   0.000  0.00  0.00    +0.000 C 
ENDBRANCH  20  29
ENDBRANCH   4  20
TORSDOF 3
