REMARK  Name = 44258971
REMARK  7 active torsions:
REMARK  status: ('A' for Active; 'I' for Inactive)
REMARK    1  A    between atoms: O_3  and  C_16
REMARK    2  A    between atoms: O_3  and  C_30
REMARK    3  A    between atoms: O_4  and  C_20
REMARK    4  A    between atoms: O_4  and  C_28
REMARK    5  A    between atoms: O_7  and  C_25
REMARK    6  A    between atoms: O_7  and  C_29
REMARK    7  A    between atoms: C_33  and  C_38
REMARK                            x       y       z     vdW  Elec       q    Type
REMARK                         _______ _______ _______ _____ _____    ______ ____
ROOT
ATOM      1  O   UNL     1       6.384  -0.160   0.000  0.00  0.00    +0.000 OA
ATOM      2  O   UNL     1       4.241  -1.398   0.000  0.00  0.00    +0.000 OA
ATOM      3  O   UNL     1       3.495  -0.163   0.000  0.00  0.00    +0.000 OA
ATOM      4  C   UNL     1       5.670  -1.398   0.000  0.00  0.00    +0.000 A 
ATOM      5  C   UNL     1       4.942   1.547   0.000  0.00  0.00    +0.000 A 
ATOM      6  C   UNL     1       4.955  -0.160   0.000  0.00  0.00    +0.000 A 
ATOM      7  C   UNL     1       4.955  -0.985   0.000  0.00  0.00    +0.000 A 
ATOM      8  C   UNL     1       6.384  -0.985   0.000  0.00  0.00    +0.000 A 
ATOM      9  C   UNL     1       5.670   0.253   0.000  0.00  0.00    +0.000 A 
ATOM     10  C   UNL     1       5.683   1.112   0.000  0.00  0.00    +0.000 A 
ATOM     11  C   UNL     1       4.198   1.117   0.000  0.00  0.00    +0.000 A 
ATOM     12  C   UNL     1       4.205   0.258   0.000  0.00  0.00    +0.000 A 
ENDROOT
BRANCH   8  14
ATOM     13  O   UNL     1       9.242  -2.635   0.000  0.00  0.00    +0.000 OA
ATOM     14  C   UNL     1       7.099  -1.398   0.000  0.00  0.00    +0.000 A 
ATOM     15  C   UNL     1       7.099  -2.223   0.000  0.00  0.00    +0.000 A 
ATOM     16  C   UNL     1       7.813  -0.985   0.000  0.00  0.00    +0.000 A 
ATOM     17  C   UNL     1       7.813  -2.635   0.000  0.00  0.00    +0.000 A 
ATOM     18  C   UNL     1       8.528  -1.398   0.000  0.00  0.00    +0.000 A 
ATOM     19  C   UNL     1       8.528  -2.223   0.000  0.00  0.00    +0.000 A 
ENDBRANCH   8  14
BRANCH   4  20
ATOM     20  O   UNL     1       5.670  -2.223   0.000  0.00  0.00    +0.000 OA
BRANCH  20  28
ATOM     21  O   UNL     1       4.241  -2.223   0.000  0.00  0.00    +0.000 OA
ATOM     22  O   UNL     1       4.241  -4.697   0.000  0.00  0.00    +0.000 OA
ATOM     23  O   UNL     1       5.670  -3.873   0.000  0.00  0.00    +0.000 OA
ATOM     24  C   UNL     1       3.526  -3.460   0.000  0.00  0.00    +0.000 C 
ATOM     25  C   UNL     1       4.241  -3.873   0.000  0.00  0.00    +0.000 C 
ATOM     26  C   UNL     1       4.955  -3.460   0.000  0.00  0.00    +0.000 C 
ATOM     27  C   UNL     1       3.526  -2.635   0.000  0.00  0.00    +0.000 C 
ATOM     28  C   UNL     1       4.955  -2.635   0.000  0.00  0.00    +0.000 C 
ATOM     29  C   UNL     1       2.812  -2.223   0.000  0.00  0.00    +0.000 C 
BRANCH  24  30
ATOM     30  O   UNL     1       2.812  -3.873   0.000  0.00  0.00    +0.000 OA
BRANCH  30  32
ATOM     31  O   UNL     1       3.526  -5.110   0.000  0.00  0.00    +0.000 OA
ATOM     32  C   UNL     1       2.812  -4.697   0.000  0.00  0.00    +0.000 C 
ATOM     33  C   UNL     1       2.098  -5.110   0.000  0.00  0.00    +0.000 C 
ENDBRANCH  30  32
ENDBRANCH  24  30
ENDBRANCH  20  28
ENDBRANCH   4  20
BRANCH   5  34
ATOM     34  O   UNL     1       4.946   2.372   0.000  0.00  0.00    +0.000 OA
BRANCH  34  43
ATOM     35  O   UNL     1       3.517   2.378   0.000  0.00  0.00    +0.000 OA
ATOM     36  O   UNL     1       3.526   4.853   0.000  0.00  0.00    +0.000 OA
ATOM     37  O   UNL     1       2.094   4.033   0.000  0.00  0.00    +0.000 OA
ATOM     38  O   UNL     1       4.952   4.022   0.000  0.00  0.00    +0.000 OA
ATOM     39  C   UNL     1       3.523   4.028   0.000  0.00  0.00    +0.000 C 
ATOM     40  C   UNL     1       2.807   3.618   0.000  0.00  0.00    +0.000 C 
ATOM     41  C   UNL     1       4.236   3.612   0.000  0.00  0.00    +0.000 C 
ATOM     42  C   UNL     1       2.804   2.793   0.000  0.00  0.00    +0.000 C 
ATOM     43  C   UNL     1       4.233   2.787   0.000  0.00  0.00    +0.000 C 
ATOM     44  C   UNL     1       2.088   2.383   0.000  0.00  0.00    +0.000 C 
ENDBRANCH  34  43
ENDBRANCH   5  34
TORSDOF 7
