REMARK  Name = 131837670
REMARK  4 active torsions:
REMARK  status: ('A' for Active; 'I' for Inactive)
REMARK    1  A    between atoms: S_1  and  O_3
REMARK    2  A    between atoms: O_3  and  C_12
REMARK    3  A    between atoms: O_7  and  C_25
REMARK    4  A    between atoms: C_11  and  C_15
REMARK                            x       y       z     vdW  Elec       q    Type
REMARK                         _______ _______ _______ _____ _____    ______ ____
ROOT
ATOM      1  O   UNL     1       4.562  -1.791   0.000  0.00  0.00    +0.000 OA
ATOM      2  O   UNL     1       2.706   0.607   0.000  0.00  0.00    +0.000 OA
ATOM      3  O   UNL     1       1.650  -1.811   0.000  0.00  0.00    +0.000 OA
ATOM      4  C   UNL     1       5.277  -0.553   0.000  0.00  0.00    +0.000 C 
ATOM      5  C   UNL     1       4.562  -0.141   0.000  0.00  0.00    +0.000 C 
ATOM      6  C   UNL     1       5.277  -1.379   0.000  0.00  0.00    +0.000 C 
ATOM      7  C   UNL     1       3.848  -0.553   0.000  0.00  0.00    +0.000 A 
ATOM      8  C   UNL     1       3.848  -1.379   0.000  0.00  0.00    +0.000 A 
ATOM      9  C   UNL     1       3.110  -0.112   0.000  0.00  0.00    +0.000 A 
ATOM     10  C   UNL     1       3.110  -1.820   0.000  0.00  0.00    +0.000 A 
ATOM     11  C   UNL     1       2.363  -0.536   0.000  0.00  0.00    +0.000 A 
ATOM     12  C   UNL     1       2.363  -1.396   0.000  0.00  0.00    +0.000 A 
ENDROOT
BRANCH   4  14
ATOM     13  O   UNL     1       6.706  -1.379   0.000  0.00  0.00    +0.000 OA
ATOM     14  C   UNL     1       5.991  -0.141   0.000  0.00  0.00    +0.000 A 
ATOM     15  C   UNL     1       6.706  -0.553   0.000  0.00  0.00    +0.000 A 
ATOM     16  C   UNL     1       5.991   0.684   0.000  0.00  0.00    +0.000 A 
ATOM     17  C   UNL     1       7.420  -0.141   0.000  0.00  0.00    +0.000 A 
ATOM     18  C   UNL     1       6.706   1.097   0.000  0.00  0.00    +0.000 A 
ATOM     19  C   UNL     1       7.420   0.684   0.000  0.00  0.00    +0.000 A 
BRANCH  19  20
ATOM     20  O   UNL     1       8.135   1.097   0.000  0.00  0.00    +0.000 OA
ATOM     21  C   UNL     1       8.849   0.684   0.000  0.00  0.00    +0.000 C 
ENDBRANCH  19  20
ENDBRANCH   4  14
BRANCH   5  22
ATOM     22  O   UNL     1       4.562   0.684   0.000  0.00  0.00    +0.000 OA
BRANCH  22  23
ATOM     23  S   UNL     1       4.150   1.399   0.000  0.00  0.00    +0.000 S 
ATOM     24  O   UNL     1       4.864   1.811   0.000  0.00  0.00    +0.000 OA
ATOM     25  O   UNL     1       3.737   2.113   0.000  0.00  0.00    +0.000 OA
ATOM     26  O   UNL     1       3.435   0.986   0.000  0.00  0.00    +0.000 OA
ENDBRANCH  22  23
ENDBRANCH   5  22
TORSDOF 4
