REMARK  Name = 25189612
REMARK  3 active torsions:
REMARK  status: ('A' for Active; 'I' for Inactive)
REMARK    1  A    between atoms: O_2  and  C_13
REMARK    2  A    between atoms: O_3  and  C_15
REMARK    3  A    between atoms: C_6  and  C_7
REMARK                            x       y       z     vdW  Elec       q    Type
REMARK                         _______ _______ _______ _____ _____    ______ ____
ROOT
ATOM      1  O   UNL     1       5.993  -2.141   0.000  0.00  0.00    +0.000 OA
ATOM      2  C   UNL     1       5.278  -0.078   0.000  0.00  0.00    +0.000 A 
ATOM      3  C   UNL     1       5.993   0.334   0.000  0.00  0.00    +0.000 A 
ATOM      4  C   UNL     1       5.278  -0.903   0.000  0.00  0.00    +0.000 A 
ATOM      5  C   UNL     1       6.707  -0.078   0.000  0.00  0.00    +0.000 A 
ATOM      6  C   UNL     1       6.707  -0.903   0.000  0.00  0.00    +0.000 A 
ATOM      7  C   UNL     1       5.993  -1.316   0.000  0.00  0.00    +0.000 A 
ENDROOT
BRANCH   2  10
ATOM      8  O   UNL     1       3.849  -0.078   0.000  0.00  0.00    +0.000 OA
ATOM      9  O   UNL     1       3.849   2.397   0.000  0.00  0.00    +0.000 OA
ATOM     10  C   UNL     1       4.564   0.334   0.000  0.00  0.00    +0.000 A 
ATOM     11  C   UNL     1       3.135   1.159   0.000  0.00  0.00    +0.000 A 
ATOM     12  C   UNL     1       3.135   0.334   0.000  0.00  0.00    +0.000 A 
ATOM     13  C   UNL     1       4.564   1.159   0.000  0.00  0.00    +0.000 A 
ATOM     14  C   UNL     1       3.849   1.572   0.000  0.00  0.00    +0.000 A 
ATOM     15  C   UNL     1       2.397   1.600   0.000  0.00  0.00    +0.000 A 
ATOM     16  C   UNL     1       2.397  -0.107   0.000  0.00  0.00    +0.000 A 
ATOM     17  C   UNL     1       1.650   1.176   0.000  0.00  0.00    +0.000 A 
ATOM     18  C   UNL     1       1.650   0.317   0.000  0.00  0.00    +0.000 A 
ENDBRANCH   2  10
BRANCH   5  19
ATOM     19  O   UNL     1       7.422   0.334   0.000  0.00  0.00    +0.000 OA
ATOM     20  C   UNL     1       7.422   1.159   0.000  0.00  0.00    +0.000 C 
ENDBRANCH   5  19
BRANCH   6  21
ATOM     21  O   UNL     1       7.422  -1.316   0.000  0.00  0.00    +0.000 OA
ATOM     22  C   UNL     1       8.136  -0.903   0.000  0.00  0.00    +0.000 C 
ENDBRANCH   6  21
TORSDOF 3
