REMARK  Name = 131834090
REMARK  2 active torsions:
REMARK  status: ('A' for Active; 'I' for Inactive)
REMARK    1  A    between atoms: O_5  and  C_18
REMARK    2  A    between atoms: C_7  and  C_11
REMARK                            x       y       z     vdW  Elec       q    Type
REMARK                         _______ _______ _______ _____ _____    ______ ____
ROOT
ATOM      1  O   UNL     1       5.006  -0.145   0.000  0.00  0.00    +0.000 OA
ATOM      2  O   UNL     1       6.435   1.505   0.000  0.00  0.00    +0.000 OA
ATOM      3  O   UNL     1       3.564   2.359   0.000  0.00  0.00    +0.000 OA
ATOM      4  O   UNL     1       2.094  -0.165   0.000  0.00  0.00    +0.000 OA
ATOM      5  C   UNL     1       5.721   1.093   0.000  0.00  0.00    +0.000 C 
ATOM      6  C   UNL     1       5.721   0.268   0.000  0.00  0.00    +0.000 C 
ATOM      7  C   UNL     1       5.006   1.505   0.000  0.00  0.00    +0.000 C 
ATOM      8  C   UNL     1       4.292   1.093   0.000  0.00  0.00    +0.000 A 
ATOM      9  C   UNL     1       4.292   0.268   0.000  0.00  0.00    +0.000 A 
ATOM     10  C   UNL     1       3.554   1.534   0.000  0.00  0.00    +0.000 A 
ATOM     11  C   UNL     1       3.554  -0.173   0.000  0.00  0.00    +0.000 A 
ATOM     12  C   UNL     1       2.807   1.110   0.000  0.00  0.00    +0.000 A 
ATOM     13  C   UNL     1       2.807   0.251   0.000  0.00  0.00    +0.000 A 
ENDROOT
BRANCH   6  14
ATOM     14  C   UNL     1       6.435  -0.145   0.000  0.00  0.00    +0.000 A 
ATOM     15  C   UNL     1       6.435  -0.970   0.000  0.00  0.00    +0.000 A 
ATOM     16  C   UNL     1       7.150   0.268   0.000  0.00  0.00    +0.000 A 
ATOM     17  C   UNL     1       7.150  -1.382   0.000  0.00  0.00    +0.000 A 
ATOM     18  C   UNL     1       7.864  -0.145   0.000  0.00  0.00    +0.000 A 
ATOM     19  C   UNL     1       7.864  -0.970   0.000  0.00  0.00    +0.000 A 
BRANCH  17  20
ATOM     20  O   UNL     1       7.150  -2.207   0.000  0.00  0.00    +0.000 OA
ATOM     21  C   UNL     1       7.864  -2.620   0.000  0.00  0.00    +0.000 C 
ENDBRANCH  17  20
ENDBRANCH   6  14
TORSDOF 2
