REMARK  Name = 131835093
REMARK  4 active torsions:
REMARK  status: ('A' for Active; 'I' for Inactive)
REMARK    1  A    between atoms: S_1  and  O_3
REMARK    2  A    between atoms: O_3  and  C_14
REMARK    3  A    between atoms: O_6  and  C_25
REMARK    4  A    between atoms: C_13  and  C_15
REMARK                            x       y       z     vdW  Elec       q    Type
REMARK                         _______ _______ _______ _____ _____    ______ ____
ROOT
ATOM      1  O   UNL     1       5.006  -0.540   0.000  0.00  0.00    +0.000 OA
ATOM      2  O   UNL     1       5.006   1.935   0.000  0.00  0.00    +0.000 OA
ATOM      3  O   UNL     1       3.564   1.963   0.000  0.00  0.00    +0.000 OA
ATOM      4  O   UNL     1       2.094   1.130   0.000  0.00  0.00    +0.000 OA
ATOM      5  O   UNL     1       2.094  -0.560   0.000  0.00  0.00    +0.000 OA
ATOM      6  C   UNL     1       5.721  -0.128   0.000  0.00  0.00    +0.000 C 
ATOM      7  C   UNL     1       5.721   0.697   0.000  0.00  0.00    +0.000 C 
ATOM      8  C   UNL     1       5.006   1.110   0.000  0.00  0.00    +0.000 C 
ATOM      9  C   UNL     1       4.292   0.697   0.000  0.00  0.00    +0.000 A 
ATOM     10  C   UNL     1       4.292  -0.128   0.000  0.00  0.00    +0.000 A 
ATOM     11  C   UNL     1       3.554   1.138   0.000  0.00  0.00    +0.000 A 
ATOM     12  C   UNL     1       3.554  -0.569   0.000  0.00  0.00    +0.000 A 
ATOM     13  C   UNL     1       2.807   0.714   0.000  0.00  0.00    +0.000 A 
ATOM     14  C   UNL     1       2.807  -0.145   0.000  0.00  0.00    +0.000 A 
ENDROOT
BRANCH   6  16
ATOM     15  O   UNL     1       8.579  -1.778   0.000  0.00  0.00    +0.000 OA
ATOM     16  C   UNL     1       6.435  -0.540   0.000  0.00  0.00    +0.000 A 
ATOM     17  C   UNL     1       6.435  -1.365   0.000  0.00  0.00    +0.000 A 
ATOM     18  C   UNL     1       7.150  -0.128   0.000  0.00  0.00    +0.000 A 
ATOM     19  C   UNL     1       7.150  -1.778   0.000  0.00  0.00    +0.000 A 
ATOM     20  C   UNL     1       7.864  -0.540   0.000  0.00  0.00    +0.000 A 
ATOM     21  C   UNL     1       7.864  -1.365   0.000  0.00  0.00    +0.000 A 
BRANCH  19  22
ATOM     22  O   UNL     1       7.150  -2.603   0.000  0.00  0.00    +0.000 OA
ATOM     23  C   UNL     1       7.864  -3.015   0.000  0.00  0.00    +0.000 C 
ENDBRANCH  19  22
ENDBRANCH   6  16
BRANCH   7  24
ATOM     24  O   UNL     1       6.435   1.110   0.000  0.00  0.00    +0.000 OA
BRANCH  24  25
ATOM     25  S   UNL     1       6.435   1.935   0.000  0.00  0.00    +0.000 S 
ATOM     26  O   UNL     1       6.435   2.760   0.000  0.00  0.00    +0.000 OA
ATOM     27  O   UNL     1       7.260   1.935   0.000  0.00  0.00    +0.000 OA
ATOM     28  O   UNL     1       5.610   1.935   0.000  0.00  0.00    +0.000 OA
ENDBRANCH  24  25
ENDBRANCH   7  24
TORSDOF 4
