REMARK  Name = 131836451
REMARK  4 active torsions:
REMARK  status: ('A' for Active; 'I' for Inactive)
REMARK    1  A    between atoms: O_2  and  C_11
REMARK    2  A    between atoms: O_6  and  C_20
REMARK    3  A    between atoms: O_8  and  C_24
REMARK    4  A    between atoms: C_10  and  C_12
REMARK                            x       y       z     vdW  Elec       q    Type
REMARK                         _______ _______ _______ _____ _____    ______ ____
ROOT
ATOM      1  O   UNL     1       5.278  -0.223   0.000  0.00  0.00    +0.000 OA
ATOM      2  O   UNL     1       5.278   2.252   0.000  0.00  0.00    +0.000 OA
ATOM      3  O   UNL     1       3.836   2.280   0.000  0.00  0.00    +0.000 OA
ATOM      4  O   UNL     1       2.366  -0.243   0.000  0.00  0.00    +0.000 OA
ATOM      5  C   UNL     1       5.993   0.189   0.000  0.00  0.00    +0.000 C 
ATOM      6  C   UNL     1       5.993   1.014   0.000  0.00  0.00    +0.000 C 
ATOM      7  C   UNL     1       5.278   1.427   0.000  0.00  0.00    +0.000 C 
ATOM      8  C   UNL     1       4.564   1.014   0.000  0.00  0.00    +0.000 A 
ATOM      9  C   UNL     1       4.564   0.189   0.000  0.00  0.00    +0.000 A 
ATOM     10  C   UNL     1       3.826   1.456   0.000  0.00  0.00    +0.000 A 
ATOM     11  C   UNL     1       3.826  -0.252   0.000  0.00  0.00    +0.000 A 
ATOM     12  C   UNL     1       3.079   1.032   0.000  0.00  0.00    +0.000 A 
ATOM     13  C   UNL     1       3.079   0.172   0.000  0.00  0.00    +0.000 A 
ENDROOT
BRANCH   5  16
ATOM     14  O   UNL     1       5.993  -1.461   0.000  0.00  0.00    +0.000 OA
ATOM     15  O   UNL     1       7.422  -2.286   0.000  0.00  0.00    +0.000 OA
ATOM     16  C   UNL     1       6.707  -0.223   0.000  0.00  0.00    +0.000 A 
ATOM     17  C   UNL     1       6.707  -1.048   0.000  0.00  0.00    +0.000 A 
ATOM     18  C   UNL     1       7.422   0.189   0.000  0.00  0.00    +0.000 A 
ATOM     19  C   UNL     1       7.422  -1.461   0.000  0.00  0.00    +0.000 A 
ATOM     20  C   UNL     1       8.136  -0.223   0.000  0.00  0.00    +0.000 A 
ATOM     21  C   UNL     1       8.136  -1.048   0.000  0.00  0.00    +0.000 A 
BRANCH  21  22
ATOM     22  O   UNL     1       8.851  -1.461   0.000  0.00  0.00    +0.000 OA
ATOM     23  C   UNL     1       9.565  -1.048   0.000  0.00  0.00    +0.000 C 
ENDBRANCH  21  22
ENDBRANCH   5  16
BRANCH   6  24
ATOM     24  O   UNL     1       6.707   1.427   0.000  0.00  0.00    +0.000 OA
ATOM     25  C   UNL     1       6.707   2.252   0.000  0.00  0.00    +0.000 C 
ENDBRANCH   6  24
BRANCH  12  26
ATOM     26  O   UNL     1       2.366   1.447   0.000  0.00  0.00    +0.000 OA
ATOM     27  C   UNL     1       1.650   1.037   0.000  0.00  0.00    +0.000 C 
ENDBRANCH  12  26
TORSDOF 4
