REMARK  Name = 44257647
REMARK  4 active torsions:
REMARK  status: ('A' for Active; 'I' for Inactive)
REMARK    1  A    between atoms: O_3  and  C_16
REMARK    2  A    between atoms: O_4  and  C_17
REMARK    3  A    between atoms: C_8  and  C_10
REMARK    4  A    between atoms: C_20  and  C_22
REMARK                            x       y       z     vdW  Elec       q    Type
REMARK                         _______ _______ _______ _____ _____    ______ ____
ROOT
ATOM      1  O   UNL     1       5.245  -0.013   0.000  0.00  0.00    +0.000 OA
ATOM      2  O   UNL     1       5.236   2.519   0.000  0.00  0.00    +0.000 OA
ATOM      3  C   UNL     1       3.793   0.016   0.000  0.00  0.00    +0.000 A 
ATOM      4  C   UNL     1       4.508   0.428   0.000  0.00  0.00    +0.000 A 
ATOM      5  C   UNL     1       4.508   1.254   0.000  0.00  0.00    +0.000 A 
ATOM      6  C   UNL     1       3.079   0.428   0.000  0.00  0.00    +0.000 A 
ATOM      7  C   UNL     1       3.793   1.666   0.000  0.00  0.00    +0.000 A 
ATOM      8  C   UNL     1       3.079   1.254   0.000  0.00  0.00    +0.000 A 
ATOM      9  C   UNL     1       5.245   1.695   0.000  0.00  0.00    +0.000 A 
ATOM     10  C   UNL     1       5.993   0.411   0.000  0.00  0.00    +0.000 A 
ATOM     11  C   UNL     1       5.993   1.271   0.000  0.00  0.00    +0.000 A 
ENDROOT
BRANCH   3  15
ATOM     12  O   UNL     1       3.381  -2.079   0.000  0.00  0.00    +0.000 OA
ATOM     13  O   UNL     1       2.341  -1.039   0.000  0.00  0.00    +0.000 OA
ATOM     14  C   UNL     1       4.206  -2.079   0.000  0.00  0.00    +0.000 C 
ATOM     15  C   UNL     1       3.793  -0.809   0.000  0.00  0.00    +0.000 C 
ATOM     16  C   UNL     1       4.461  -1.294   0.000  0.00  0.00    +0.000 C 
ATOM     17  C   UNL     1       4.206  -2.904   0.000  0.00  0.00    +0.000 C 
ATOM     18  C   UNL     1       4.990  -2.333   0.000  0.00  0.00    +0.000 C 
ATOM     19  C   UNL     1       3.126  -1.294   0.000  0.00  0.00    +0.000 C 
ENDBRANCH   3  15
BRANCH  10  20
ATOM     20  C   UNL     1       6.706  -0.004   0.000  0.00  0.00    +0.000 A 
ATOM     21  C   UNL     1       6.703  -0.829   0.000  0.00  0.00    +0.000 A 
ATOM     22  C   UNL     1       7.422   0.406   0.000  0.00  0.00    +0.000 A 
ATOM     23  C   UNL     1       7.415  -1.244   0.000  0.00  0.00    +0.000 A 
ATOM     24  C   UNL     1       8.135  -0.009   0.000  0.00  0.00    +0.000 A 
ATOM     25  C   UNL     1       8.132  -0.834   0.000  0.00  0.00    +0.000 A 
ENDBRANCH  10  20
BRANCH   6  26
ATOM     26  O   UNL     1       2.364   0.016   0.000  0.00  0.00    +0.000 OA
ATOM     27  C   UNL     1       1.650   0.428   0.000  0.00  0.00    +0.000 C 
ENDBRANCH   6  26
BRANCH   7  28
ATOM     28  O   UNL     1       3.793   2.491   0.000  0.00  0.00    +0.000 OA
ATOM     29  C   UNL     1       3.079   2.904   0.000  0.00  0.00    +0.000 C 
ENDBRANCH   7  28
TORSDOF 4
