REMARK  Name = 20222511
REMARK  2 active torsions:
REMARK  status: ('A' for Active; 'I' for Inactive)
REMARK    1  A    between atoms: O_5  and  C_21
REMARK    2  A    between atoms: C_7  and  C_12
REMARK                            x       y       z     vdW  Elec       q    Type
REMARK                         _______ _______ _______ _____ _____    ______ ____
ROOT
ATOM      1  O   UNL     1       4.974  -0.144   0.000  0.00  0.00    +0.000 OA
ATOM      2  O   UNL     1       4.964   2.388   0.000  0.00  0.00    +0.000 OA
ATOM      3  O   UNL     1       3.522   2.360   0.000  0.00  0.00    +0.000 OA
ATOM      4  O   UNL     1       2.093  -0.115   0.000  0.00  0.00    +0.000 OA
ATOM      5  C   UNL     1       5.721   0.280   0.000  0.00  0.00    +0.000 C 
ATOM      6  C   UNL     1       5.721   1.139   0.000  0.00  0.00    +0.000 C 
ATOM      7  C   UNL     1       4.236   1.122   0.000  0.00  0.00    +0.000 A 
ATOM      8  C   UNL     1       4.236   0.297   0.000  0.00  0.00    +0.000 A 
ATOM      9  C   UNL     1       4.974   1.563   0.000  0.00  0.00    +0.000 C 
ATOM     10  C   UNL     1       3.522  -0.115   0.000  0.00  0.00    +0.000 A 
ATOM     11  C   UNL     1       3.522   1.535   0.000  0.00  0.00    +0.000 A 
ATOM     12  C   UNL     1       2.808   1.122   0.000  0.00  0.00    +0.000 A 
ATOM     13  C   UNL     1       2.808   0.297   0.000  0.00  0.00    +0.000 A 
ATOM     14  C   UNL     1       3.522  -0.940   0.000  0.00  0.00    +0.000 C 
ATOM     15  C   UNL     1       2.093   1.535   0.000  0.00  0.00    +0.000 C 
ENDROOT
BRANCH   5  17
ATOM     16  O   UNL     1       8.573  -1.381   0.000  0.00  0.00    +0.000 OA
ATOM     17  C   UNL     1       6.434  -0.135   0.000  0.00  0.00    +0.000 A 
ATOM     18  C   UNL     1       6.431  -0.960   0.000  0.00  0.00    +0.000 A 
ATOM     19  C   UNL     1       7.150   0.275   0.000  0.00  0.00    +0.000 A 
ATOM     20  C   UNL     1       7.144  -1.375   0.000  0.00  0.00    +0.000 A 
ATOM     21  C   UNL     1       7.863  -0.141   0.000  0.00  0.00    +0.000 A 
ATOM     22  C   UNL     1       7.860  -0.966   0.000  0.00  0.00    +0.000 A 
BRANCH  20  23
ATOM     23  O   UNL     1       7.141  -2.200   0.000  0.00  0.00    +0.000 OA
ATOM     24  C   UNL     1       7.854  -2.616   0.000  0.00  0.00    +0.000 C 
ENDBRANCH  20  23
ENDBRANCH   5  17
TORSDOF 2
