REMARK  Name = 12444939
REMARK  2 active torsions:
REMARK  status: ('A' for Active; 'I' for Inactive)
REMARK    1  A    between atoms: O_4  and  C_16
REMARK    2  A    between atoms: C_13  and  C_18
REMARK                            x       y       z     vdW  Elec       q    Type
REMARK                         _______ _______ _______ _____ _____    ______ ____
ROOT
ATOM      1  O   UNL     1       3.613  -0.484   0.000  0.00  0.00    +0.000 OA
ATOM      2  O   UNL     1       2.131  -1.505   0.000  0.00  0.00    +0.000 OA
ATOM      3  O   UNL     1       2.131  -2.833   0.000  0.00  0.00    +0.000 OA
ATOM      4  O   UNL     1       5.056  -2.994   0.000  0.00  0.00    +0.000 OA
ATOM      5  O   UNL     1       5.801  -1.759   0.000  0.00  0.00    +0.000 OA
ATOM      6  C   UNL     1       3.627  -1.344   0.000  0.00  0.00    +0.000 A 
ATOM      7  C   UNL     1       4.341  -1.756   0.000  0.00  0.00    +0.000 A 
ATOM      8  C   UNL     1       2.912  -1.756   0.000  0.00  0.00    +0.000 A 
ATOM      9  C   UNL     1       2.912  -2.581   0.000  0.00  0.00    +0.000 A 
ATOM     10  C   UNL     1       4.354  -0.049   0.000  0.00  0.00    +0.000 A 
ATOM     11  C   UNL     1       4.341  -2.581   0.000  0.00  0.00    +0.000 A 
ATOM     12  C   UNL     1       5.092  -1.338   0.000  0.00  0.00    +0.000 A 
ATOM     13  C   UNL     1       5.098  -0.479   0.000  0.00  0.00    +0.000 A 
ATOM     14  C   UNL     1       3.627  -2.994   0.000  0.00  0.00    +0.000 A 
ATOM     15  C   UNL     1       1.650  -2.169   0.000  0.00  0.00    +0.000 C 
ENDROOT
BRANCH  10  18
ATOM     16  O   UNL     1       5.774   2.432   0.000  0.00  0.00    +0.000 OA
ATOM     17  O   UNL     1       4.341   3.251   0.000  0.00  0.00    +0.000 OA
ATOM     18  C   UNL     1       4.351   0.776   0.000  0.00  0.00    +0.000 A 
ATOM     19  C   UNL     1       5.064   1.191   0.000  0.00  0.00    +0.000 A 
ATOM     20  C   UNL     1       3.635   1.186   0.000  0.00  0.00    +0.000 A 
ATOM     21  C   UNL     1       5.061   2.016   0.000  0.00  0.00    +0.000 A 
ATOM     22  C   UNL     1       3.632   2.011   0.000  0.00  0.00    +0.000 A 
ATOM     23  C   UNL     1       4.345   2.426   0.000  0.00  0.00    +0.000 A 
ENDBRANCH  10  18
BRANCH  13  24
ATOM     24  O   UNL     1       5.814  -0.069   0.000  0.00  0.00    +0.000 OA
ATOM     25  C   UNL     1       6.527  -0.484   0.000  0.00  0.00    +0.000 C 
ENDBRANCH  13  24
TORSDOF 2
