REMARK  Name = 131837245
REMARK  4 active torsions:
REMARK  status: ('A' for Active; 'I' for Inactive)
REMARK    1  A    between atoms: S_1  and  O_3
REMARK    2  A    between atoms: O_3  and  C_18
REMARK    3  A    between atoms: O_4  and  C_19
REMARK    4  A    between atoms: C_10  and  C_11
REMARK                            x       y       z     vdW  Elec       q    Type
REMARK                         _______ _______ _______ _____ _____    ______ ____
ROOT
ATOM      1  C   UNL     1       6.435   0.462   0.000  0.00  0.00    +0.000 A 
ATOM      2  C   UNL     1       6.435  -0.363   0.000  0.00  0.00    +0.000 A 
ATOM      3  C   UNL     1       7.150   0.875   0.000  0.00  0.00    +0.000 A 
ATOM      4  C   UNL     1       7.150  -0.775   0.000  0.00  0.00    +0.000 A 
ATOM      5  C   UNL     1       7.864  -0.363   0.000  0.00  0.00    +0.000 A 
ATOM      6  C   UNL     1       7.864   0.462   0.000  0.00  0.00    +0.000 A 
ENDROOT
BRANCH   1  10
ATOM      7  O   UNL     1       5.006   0.462   0.000  0.00  0.00    +0.000 OA
ATOM      8  O   UNL     1       5.006   2.937   0.000  0.00  0.00    +0.000 OA
ATOM      9  O   UNL     1       2.094   0.442   0.000  0.00  0.00    +0.000 OA
ATOM     10  C   UNL     1       5.721   0.875   0.000  0.00  0.00    +0.000 A 
ATOM     11  C   UNL     1       4.292   1.700   0.000  0.00  0.00    +0.000 A 
ATOM     12  C   UNL     1       4.292   0.875   0.000  0.00  0.00    +0.000 A 
ATOM     13  C   UNL     1       5.721   1.700   0.000  0.00  0.00    +0.000 A 
ATOM     14  C   UNL     1       5.006   2.112   0.000  0.00  0.00    +0.000 A 
ATOM     15  C   UNL     1       3.554   2.141   0.000  0.00  0.00    +0.000 A 
ATOM     16  C   UNL     1       3.554   0.433   0.000  0.00  0.00    +0.000 A 
ATOM     17  C   UNL     1       2.807   0.857   0.000  0.00  0.00    +0.000 A 
ATOM     18  C   UNL     1       2.807   1.717   0.000  0.00  0.00    +0.000 A 
ENDBRANCH   1  10
BRANCH   5  19
ATOM     19  O   UNL     1       8.579  -0.775   0.000  0.00  0.00    +0.000 OA
ATOM     20  C   UNL     1       9.293  -0.363   0.000  0.00  0.00    +0.000 C 
ENDBRANCH   5  19
BRANCH   4  21
ATOM     21  O   UNL     1       7.150  -1.601   0.000  0.00  0.00    +0.000 OA
BRANCH  21  22
ATOM     22  S   UNL     1       6.435  -2.013   0.000  0.00  0.00    +0.000 S 
ATOM     23  O   UNL     1       5.721  -2.425   0.000  0.00  0.00    +0.000 OA
ATOM     24  O   UNL     1       6.848  -2.727   0.000  0.00  0.00    +0.000 OA
ATOM     25  O   UNL     1       6.023  -1.299   0.000  0.00  0.00    +0.000 OA
ENDBRANCH  21  22
ENDBRANCH   4  21
TORSDOF 4
