REMARK  Name = 131832988
REMARK  4 active torsions:
REMARK  status: ('A' for Active; 'I' for Inactive)
REMARK    1  A    between atoms: S_1  and  O_3
REMARK    2  A    between atoms: O_3  and  C_12
REMARK    3  A    between atoms: O_6  and  C_23
REMARK    4  A    between atoms: C_11  and  C_13
REMARK                            x       y       z     vdW  Elec       q    Type
REMARK                         _______ _______ _______ _____ _____    ______ ____
ROOT
ATOM      1  O   UNL     1       5.006  -0.540   0.000  0.00  0.00    +0.000 OA
ATOM      2  O   UNL     1       5.006   1.935   0.000  0.00  0.00    +0.000 OA
ATOM      3  O   UNL     1       3.564   1.963   0.000  0.00  0.00    +0.000 OA
ATOM      4  O   UNL     1       2.094  -0.560   0.000  0.00  0.00    +0.000 OA
ATOM      5  C   UNL     1       5.721  -0.128   0.000  0.00  0.00    +0.000 C 
ATOM      6  C   UNL     1       5.721   0.697   0.000  0.00  0.00    +0.000 C 
ATOM      7  C   UNL     1       5.006   1.110   0.000  0.00  0.00    +0.000 C 
ATOM      8  C   UNL     1       4.292   0.697   0.000  0.00  0.00    +0.000 A 
ATOM      9  C   UNL     1       4.292  -0.128   0.000  0.00  0.00    +0.000 A 
ATOM     10  C   UNL     1       3.554   1.138   0.000  0.00  0.00    +0.000 A 
ATOM     11  C   UNL     1       3.554  -0.569   0.000  0.00  0.00    +0.000 A 
ATOM     12  C   UNL     1       2.807   0.714   0.000  0.00  0.00    +0.000 A 
ATOM     13  C   UNL     1       2.807  -0.145   0.000  0.00  0.00    +0.000 A 
ENDROOT
BRANCH   5  14
ATOM     14  C   UNL     1       6.435  -0.540   0.000  0.00  0.00    +0.000 A 
ATOM     15  C   UNL     1       6.435  -1.365   0.000  0.00  0.00    +0.000 A 
ATOM     16  C   UNL     1       7.150  -0.128   0.000  0.00  0.00    +0.000 A 
ATOM     17  C   UNL     1       7.150  -1.778   0.000  0.00  0.00    +0.000 A 
ATOM     18  C   UNL     1       7.864  -0.540   0.000  0.00  0.00    +0.000 A 
ATOM     19  C   UNL     1       7.864  -1.365   0.000  0.00  0.00    +0.000 A 
BRANCH  17  20
ATOM     20  O   UNL     1       7.150  -2.603   0.000  0.00  0.00    +0.000 OA
ATOM     21  C   UNL     1       7.864  -3.015   0.000  0.00  0.00    +0.000 C 
ENDBRANCH  17  20
ENDBRANCH   5  14
BRANCH   6  22
ATOM     22  O   UNL     1       6.435   1.110   0.000  0.00  0.00    +0.000 OA
BRANCH  22  23
ATOM     23  S   UNL     1       6.435   1.935   0.000  0.00  0.00    +0.000 S 
ATOM     24  O   UNL     1       6.435   2.760   0.000  0.00  0.00    +0.000 OA
ATOM     25  O   UNL     1       7.260   1.935   0.000  0.00  0.00    +0.000 OA
ATOM     26  O   UNL     1       5.610   1.935   0.000  0.00  0.00    +0.000 OA
ENDBRANCH  22  23
ENDBRANCH   6  22
TORSDOF 4
