REMARK  Name = 131835636
REMARK  7 active torsions:
REMARK  status: ('A' for Active; 'I' for Inactive)
REMARK    1  A    between atoms: O_2  and  C_16
REMARK    2  A    between atoms: O_2  and  C_19
REMARK    3  A    between atoms: C_17  and  C_18
REMARK    4  A    between atoms: C_21  and  C_24
REMARK    5  A    between atoms: C_24  and  C_27
REMARK    6  A    between atoms: C_27  and  C_29
REMARK    7  A    between atoms: C_29  and  C_30
REMARK                            x       y       z     vdW  Elec       q    Type
REMARK                         _______ _______ _______ _____ _____    ______ ____
ROOT
ATOM      1  O   UNL     1       4.170   1.380   0.000  0.00  0.00    +0.000 OA
ATOM      2  C   UNL     1       5.665  -0.109   0.000  0.00  0.00    +0.000 A 
ATOM      3  C   UNL     1       4.951   0.303   0.000  0.00  0.00    +0.000 A 
ATOM      4  C   UNL     1       6.380   0.303   0.000  0.00  0.00    +0.000 A 
ATOM      5  C   UNL     1       4.951   1.128   0.000  0.00  0.00    +0.000 A 
ATOM      6  C   UNL     1       6.380   1.128   0.000  0.00  0.00    +0.000 A 
ATOM      7  C   UNL     1       4.170   0.052   0.000  0.00  0.00    +0.000 A 
ATOM      8  C   UNL     1       5.665   1.541   0.000  0.00  0.00    +0.000 A 
ATOM      9  C   UNL     1       3.689   0.716   0.000  0.00  0.00    +0.000 A 
ENDROOT
BRANCH   4  11
ATOM     10  O   UNL     1       7.094  -0.934   0.000  0.00  0.00    +0.000 OA
ATOM     11  C   UNL     1       7.094  -0.109   0.000  0.00  0.00    +0.000 C 
BRANCH  11  12
ATOM     12  C   UNL     1       7.809   0.303   0.000  0.00  0.00    +0.000 C 
BRANCH  12  14
ATOM     13  O   UNL     1       7.094   1.541   0.000  0.00  0.00    +0.000 OA
ATOM     14  C   UNL     1       7.809   1.128   0.000  0.00  0.00    +0.000 C 
BRANCH  14  17
ATOM     15  O   UNL     1       9.411   3.580   0.000  0.00  0.00    +0.000 OA
ATOM     16  O   UNL     1      10.560   2.916   0.000  0.00  0.00    +0.000 OA
ATOM     17  C   UNL     1       8.523   1.541   0.000  0.00  0.00    +0.000 A 
ATOM     18  C   UNL     1       8.523   2.366   0.000  0.00  0.00    +0.000 A 
ATOM     19  C   UNL     1       9.238   2.778   0.000  0.00  0.00    +0.000 A 
ATOM     20  C   UNL     1       9.238   1.128   0.000  0.00  0.00    +0.000 A 
ATOM     21  C   UNL     1       9.952   2.366   0.000  0.00  0.00    +0.000 A 
ATOM     22  C   UNL     1       9.952   1.541   0.000  0.00  0.00    +0.000 A 
ATOM     23  C   UNL     1      10.226   3.665   0.000  0.00  0.00    +0.000 C 
ENDBRANCH  14  17
ENDBRANCH  12  14
ENDBRANCH  11  12
ENDBRANCH   4  11
BRANCH   2  24
ATOM     24  O   UNL     1       5.665  -0.934   0.000  0.00  0.00    +0.000 OA
BRANCH  24  32
ATOM     25  O   UNL     1       4.237  -0.934   0.000  0.00  0.00    +0.000 OA
ATOM     26  O   UNL     1       4.237  -3.409   0.000  0.00  0.00    +0.000 OA
ATOM     27  O   UNL     1       5.665  -2.584   0.000  0.00  0.00    +0.000 OA
ATOM     28  O   UNL     1       2.808  -2.584   0.000  0.00  0.00    +0.000 OA
ATOM     29  C   UNL     1       4.237  -2.584   0.000  0.00  0.00    +0.000 C 
ATOM     30  C   UNL     1       4.951  -2.172   0.000  0.00  0.00    +0.000 C 
ATOM     31  C   UNL     1       3.522  -2.172   0.000  0.00  0.00    +0.000 C 
ATOM     32  C   UNL     1       4.951  -1.347   0.000  0.00  0.00    +0.000 C 
ATOM     33  C   UNL     1       3.522  -1.347   0.000  0.00  0.00    +0.000 C 
BRANCH  33  36
ATOM     34  O   UNL     1       2.093  -1.347   0.000  0.00  0.00    +0.000 OA
ATOM     35  O   UNL     1       2.808  -0.109   0.000  0.00  0.00    +0.000 OA
ATOM     36  C   UNL     1       2.808  -0.934   0.000  0.00  0.00    +0.000 C 
ENDBRANCH  33  36
ENDBRANCH  24  32
ENDBRANCH   2  24
TORSDOF 7
