REMARK  Name = 44259716
REMARK  3 active torsions:
REMARK  status: ('A' for Active; 'I' for Inactive)
REMARK    1  A    between atoms: O_2  and  C_13
REMARK    2  A    between atoms: O_6  and  C_24
REMARK    3  A    between atoms: C_11  and  C_16
REMARK                            x       y       z     vdW  Elec       q    Type
REMARK                         _______ _______ _______ _____ _____    ______ ____
ROOT
ATOM      1  O   UNL     1       4.562  -0.223   0.000  0.00  0.00    +0.000 OA
ATOM      2  O   UNL     1       3.120   2.280   0.000  0.00  0.00    +0.000 OA
ATOM      3  O   UNL     1       1.650  -0.243   0.000  0.00  0.00    +0.000 OA
ATOM      4  O   UNL     1       4.562   2.252   0.000  0.00  0.00    +0.000 OA
ATOM      5  C   UNL     1       3.848   1.014   0.000  0.00  0.00    +0.000 A 
ATOM      6  C   UNL     1       3.848   0.189   0.000  0.00  0.00    +0.000 A 
ATOM      7  C   UNL     1       5.277   0.189   0.000  0.00  0.00    +0.000 A 
ATOM      8  C   UNL     1       3.110   1.456   0.000  0.00  0.00    +0.000 A 
ATOM      9  C   UNL     1       5.277   1.014   0.000  0.00  0.00    +0.000 A 
ATOM     10  C   UNL     1       4.562   1.427   0.000  0.00  0.00    +0.000 A 
ATOM     11  C   UNL     1       2.363   1.032   0.000  0.00  0.00    +0.000 A 
ATOM     12  C   UNL     1       3.110  -0.252   0.000  0.00  0.00    +0.000 A 
ATOM     13  C   UNL     1       2.363   0.172   0.000  0.00  0.00    +0.000 A 
ATOM     14  C   UNL     1       1.650   1.447   0.000  0.00  0.00    +0.000 C 
ENDROOT
BRANCH   7  17
ATOM     15  O   UNL     1       6.706  -2.286   0.000  0.00  0.00    +0.000 OA
ATOM     16  O   UNL     1       8.135   0.189   0.000  0.00  0.00    +0.000 OA
ATOM     17  C   UNL     1       5.991  -0.223   0.000  0.00  0.00    +0.000 A 
ATOM     18  C   UNL     1       6.706   0.189   0.000  0.00  0.00    +0.000 A 
ATOM     19  C   UNL     1       5.991  -1.048   0.000  0.00  0.00    +0.000 A 
ATOM     20  C   UNL     1       6.706  -1.461   0.000  0.00  0.00    +0.000 A 
ATOM     21  C   UNL     1       7.420  -0.223   0.000  0.00  0.00    +0.000 A 
ATOM     22  C   UNL     1       7.420  -1.048   0.000  0.00  0.00    +0.000 A 
BRANCH  22  23
ATOM     23  O   UNL     1       8.135  -1.461   0.000  0.00  0.00    +0.000 OA
ATOM     24  C   UNL     1       8.135  -2.286   0.000  0.00  0.00    +0.000 C 
ENDBRANCH  22  23
ENDBRANCH   7  17
BRANCH   9  25
ATOM     25  O   UNL     1       5.991   1.427   0.000  0.00  0.00    +0.000 OA
ATOM     26  C   UNL     1       5.991   2.252   0.000  0.00  0.00    +0.000 C 
ENDBRANCH   9  25
TORSDOF 3
