REMARK  Name = 12116708
REMARK  2 active torsions:
REMARK  status: ('A' for Active; 'I' for Inactive)
REMARK    1  A    between atoms: O_4  and  C_14
REMARK    2  A    between atoms: C_6  and  C_11
REMARK                            x       y       z     vdW  Elec       q    Type
REMARK                         _______ _______ _______ _____ _____    ______ ____
ROOT
ATOM      1  O   UNL     1       5.278  -0.955   0.000  0.00  0.00    +0.000 OA
ATOM      2  O   UNL     1       6.405  -1.257   0.000  0.00  0.00    +0.000 OA
ATOM      3  O   UNL     1       5.278   1.520   0.000  0.00  0.00    +0.000 OA
ATOM      4  O   UNL     1       3.836   1.548   0.000  0.00  0.00    +0.000 OA
ATOM      5  C   UNL     1       5.993  -0.543   0.000  0.00  0.00    +0.000 C 
ATOM      6  C   UNL     1       5.993   0.282   0.000  0.00  0.00    +0.000 C 
ATOM      7  C   UNL     1       4.564  -0.543   0.000  0.00  0.00    +0.000 A 
ATOM      8  C   UNL     1       4.564   0.282   0.000  0.00  0.00    +0.000 A 
ATOM      9  C   UNL     1       5.278   0.695   0.000  0.00  0.00    +0.000 C 
ATOM     10  C   UNL     1       3.826  -0.984   0.000  0.00  0.00    +0.000 A 
ATOM     11  C   UNL     1       3.826   0.723   0.000  0.00  0.00    +0.000 A 
ATOM     12  C   UNL     1       3.079  -0.560   0.000  0.00  0.00    +0.000 A 
ATOM     13  C   UNL     1       3.079   0.299   0.000  0.00  0.00    +0.000 A 
ATOM     14  C   UNL     1       3.836  -1.809   0.000  0.00  0.00    +0.000 C 
ENDROOT
BRANCH   5  15
ATOM     15  C   UNL     1       6.818  -0.543   0.000  0.00  0.00    +0.000 A 
ATOM     16  C   UNL     1       7.230  -1.257   0.000  0.00  0.00    +0.000 A 
ATOM     17  C   UNL     1       7.230   0.172   0.000  0.00  0.00    +0.000 A 
ATOM     18  C   UNL     1       8.055  -1.257   0.000  0.00  0.00    +0.000 A 
ATOM     19  C   UNL     1       8.055   0.172   0.000  0.00  0.00    +0.000 A 
ATOM     20  C   UNL     1       8.468  -0.543   0.000  0.00  0.00    +0.000 A 
ENDBRANCH   5  15
BRANCH  12  21
ATOM     21  O   UNL     1       2.366  -0.975   0.000  0.00  0.00    +0.000 OA
ATOM     22  C   UNL     1       1.650  -0.566   0.000  0.00  0.00    +0.000 C 
ENDBRANCH  12  21
TORSDOF 2
