REMARK  Name = 44259875
REMARK  4 active torsions:
REMARK  status: ('A' for Active; 'I' for Inactive)
REMARK    1  A    between atoms: S_1  and  O_4
REMARK    2  A    between atoms: O_3  and  C_16
REMARK    3  A    between atoms: O_4  and  C_21
REMARK    4  A    between atoms: C_15  and  C_19
REMARK                            x       y       z     vdW  Elec       q    Type
REMARK                         _______ _______ _______ _____ _____    ______ ____
ROOT
ATOM      1  O   UNL     1       5.384  -0.223   0.000  0.00  0.00    +0.000 OA
ATOM      2  O   UNL     1       3.942   2.280   0.000  0.00  0.00    +0.000 OA
ATOM      3  O   UNL     1       2.472   1.447   0.000  0.00  0.00    +0.000 OA
ATOM      4  O   UNL     1       5.384   2.252   0.000  0.00  0.00    +0.000 OA
ATOM      5  C   UNL     1       4.670   1.014   0.000  0.00  0.00    +0.000 A 
ATOM      6  C   UNL     1       4.670   0.189   0.000  0.00  0.00    +0.000 A 
ATOM      7  C   UNL     1       6.099   0.189   0.000  0.00  0.00    +0.000 A 
ATOM      8  C   UNL     1       6.099   1.014   0.000  0.00  0.00    +0.000 A 
ATOM      9  C   UNL     1       5.384   1.427   0.000  0.00  0.00    +0.000 A 
ATOM     10  C   UNL     1       3.932   1.456   0.000  0.00  0.00    +0.000 A 
ATOM     11  C   UNL     1       3.932  -0.252   0.000  0.00  0.00    +0.000 A 
ATOM     12  C   UNL     1       3.185   0.172   0.000  0.00  0.00    +0.000 A 
ATOM     13  C   UNL     1       3.185   1.032   0.000  0.00  0.00    +0.000 A 
ENDROOT
BRANCH   7  16
ATOM     14  O   UNL     1       7.527  -2.286   0.000  0.00  0.00    +0.000 OA
ATOM     15  O   UNL     1       8.957  -1.461   0.000  0.00  0.00    +0.000 OA
ATOM     16  C   UNL     1       6.813  -0.223   0.000  0.00  0.00    +0.000 A 
ATOM     17  C   UNL     1       6.813  -1.048   0.000  0.00  0.00    +0.000 A 
ATOM     18  C   UNL     1       7.527   0.189   0.000  0.00  0.00    +0.000 A 
ATOM     19  C   UNL     1       7.527  -1.461   0.000  0.00  0.00    +0.000 A 
ATOM     20  C   UNL     1       8.242  -0.223   0.000  0.00  0.00    +0.000 A 
ATOM     21  C   UNL     1       8.242  -1.048   0.000  0.00  0.00    +0.000 A 
ENDBRANCH   7  16
BRANCH   8  22
ATOM     22  O   UNL     1       6.813   1.427   0.000  0.00  0.00    +0.000 OA
ATOM     23  C   UNL     1       6.813   2.252   0.000  0.00  0.00    +0.000 C 
ENDBRANCH   8  22
BRANCH  12  24
ATOM     24  O   UNL     1       2.472  -0.243   0.000  0.00  0.00    +0.000 OA
BRANCH  24  25
ATOM     25  S   UNL     1       2.475  -1.068   0.000  0.00  0.00    +0.000 S 
ATOM     26  O   UNL     1       2.478  -1.893   0.000  0.00  0.00    +0.000 OA
ATOM     27  O   UNL     1       1.650  -1.071   0.000  0.00  0.00    +0.000 OA
ATOM     28  O   UNL     1       3.300  -1.065   0.000  0.00  0.00    +0.000 OA
ENDBRANCH  24  25
ENDBRANCH  12  24
TORSDOF 4
