REMARK  Name = 
REMARK  3 active torsions:
REMARK  status: ('A' for Active; 'I' for Inactive)
REMARK    1  A    between atoms: C_10  and  C_13
REMARK    2  A    between atoms: C_12  and  O_20
REMARK    3  A    between atoms: C_18  and  O_21
REMARK                            x       y       z     vdW  Elec       q    Type
REMARK                         _______ _______ _______ _____ _____    ______ ____
ROOT
ATOM      1  C   UNL     1      -1.732   1.000   0.000  0.00  0.00    +0.000 C 
ATOM      2  C   UNL     1       0.866  -0.500   0.000  0.00  0.00    +0.000 A 
ATOM      3  C   UNL     1       3.271   0.500   0.000  0.00  0.00    +0.000 C 
ATOM      4  C   UNL     1      -0.866   1.500   0.000  0.00  0.00    +0.000 C 
ATOM      5  C   UNL     1      -1.732   0.000   0.000  0.00  0.00    +0.000 C 
ATOM      6  C   UNL     1       0.000   0.000   0.000  0.00  0.00    +0.000 A 
ATOM      7  C   UNL     1       1.732   0.000   0.000  0.00  0.00    +0.000 A 
ATOM      8  C   UNL     1       0.000   1.000   0.000  0.00  0.00    +0.000 A 
ATOM      9  C   UNL     1       1.732   1.000   0.000  0.00  0.00    +0.000 A 
ATOM     10  C   UNL     1       0.866   1.500   0.000  0.00  0.00    +0.000 A 
ATOM     11  O   UNL     1      -0.866   2.500   0.000  0.00  0.00    +0.000 OA
ATOM     12  O   UNL     1       2.683  -0.309   0.000  0.00  0.00    +0.000 OA
ATOM     13  O   UNL     1       2.683   1.309   0.000  0.00  0.00    +0.000 OA
ATOM     14  O   UNL     1      -0.866  -0.500   0.000  0.00  0.00    +0.000 OA
ENDROOT
BRANCH   5  19
ATOM     15  C   UNL     1      -3.464  -2.000   0.000  0.00  0.00    +0.000 A 
ATOM     16  C   UNL     1      -4.330  -1.500   0.000  0.00  0.00    +0.000 A 
ATOM     17  C   UNL     1      -2.598  -1.500   0.000  0.00  0.00    +0.000 A 
ATOM     18  C   UNL     1      -4.330  -0.500   0.000  0.00  0.00    +0.000 A 
ATOM     19  C   UNL     1      -2.598  -0.500   0.000  0.00  0.00    +0.000 A 
ATOM     20  C   UNL     1      -3.464   0.000   0.000  0.00  0.00    +0.000 A 
BRANCH  20  22
ATOM     21  C   UNL     1      -4.330   1.500   0.000  0.00  0.00    +0.000 C 
ATOM     22  O   UNL     1      -3.464   1.000   0.000  0.00  0.00    +0.000 OA
ENDBRANCH  20  22
ENDBRANCH   5  19
BRANCH  10  24
ATOM     23  C   UNL     1       1.732   3.000   0.000  0.00  0.00    +0.000 C 
ATOM     24  O   UNL     1       0.866   2.500   0.000  0.00  0.00    +0.000 OA
ENDBRANCH  10  24
TORSDOF 3
