REMARK  Name = 
REMARK  5 active torsions:
REMARK  status: ('A' for Active; 'I' for Inactive)
REMARK    1  A    between atoms: O_2  and  C_14
REMARK    2  A    between atoms: O_3  and  C_17
REMARK    3  A    between atoms: O_4  and  C_18
REMARK    4  A    between atoms: O_5  and  C_20
REMARK    5  A    between atoms: C_8  and  C_10
REMARK                            x       y       z     vdW  Elec       q    Type
REMARK                         _______ _______ _______ _____ _____    ______ ____
ROOT
ATOM      1  O   UNL     1       6.024  -0.270   0.000  0.00  0.00    +0.000 OA
ATOM      2  O   UNL     1       6.024   2.708   0.000  0.00  0.00    +0.000 OA
ATOM      3  O   UNL     1       2.519  -0.294   0.000  0.00  0.00    +0.000 OA
ATOM      4  C   UNL     1       5.164   1.219   0.000  0.00  0.00    +0.000 A 
ATOM      5  C   UNL     1       6.883   0.226   0.000  0.00  0.00    +0.000 A 
ATOM      6  C   UNL     1       5.164   0.226   0.000  0.00  0.00    +0.000 A 
ATOM      7  C   UNL     1       6.883   1.219   0.000  0.00  0.00    +0.000 A 
ATOM      8  C   UNL     1       6.024   1.715   0.000  0.00  0.00    +0.000 A 
ATOM      9  C   UNL     1       4.277   1.749   0.000  0.00  0.00    +0.000 A 
ATOM     10  C   UNL     1       4.277  -0.305   0.000  0.00  0.00    +0.000 A 
ATOM     11  C   UNL     1       3.377   1.239   0.000  0.00  0.00    +0.000 A 
ATOM     12  C   UNL     1       3.377   0.205   0.000  0.00  0.00    +0.000 A 
ENDROOT
BRANCH   5  13
ATOM     13  C   UNL     1       7.743  -0.270   0.000  0.00  0.00    +0.000 A 
ATOM     14  C   UNL     1       8.602   0.226   0.000  0.00  0.00    +0.000 A 
ATOM     15  C   UNL     1       7.743  -1.263   0.000  0.00  0.00    +0.000 A 
ATOM     16  C   UNL     1       8.602  -1.759   0.000  0.00  0.00    +0.000 A 
ATOM     17  C   UNL     1       9.462  -0.270   0.000  0.00  0.00    +0.000 A 
ATOM     18  C   UNL     1       9.462  -1.263   0.000  0.00  0.00    +0.000 A 
BRANCH  16  19
ATOM     19  O   UNL     1       8.602  -2.752   0.000  0.00  0.00    +0.000 OA
ATOM     20  C   UNL     1       7.743  -3.248   0.000  0.00  0.00    +0.000 C 
ENDBRANCH  16  19
BRANCH  17  21
ATOM     21  O   UNL     1      10.322   0.226   0.000  0.00  0.00    +0.000 OA
ATOM     22  C   UNL     1      10.322   1.219   0.000  0.00  0.00    +0.000 C 
ENDBRANCH  17  21
BRANCH  18  23
ATOM     23  O   UNL     1      10.322  -1.759   0.000  0.00  0.00    +0.000 OA
ATOM     24  C   UNL     1      11.181  -1.263   0.000  0.00  0.00    +0.000 C 
ENDBRANCH  18  23
ENDBRANCH   5  13
BRANCH   9  25
ATOM     25  O   UNL     1       4.288   2.742   0.000  0.00  0.00    +0.000 OA
ATOM     26  C   UNL     1       3.434   3.248   0.000  0.00  0.00    +0.000 C 
ENDBRANCH   9  25
TORSDOF 5
