REMARK  Name = 14681460
REMARK  5 active torsions:
REMARK  status: ('A' for Active; 'I' for Inactive)
REMARK    1  A    between atoms: O_2  and  C_13
REMARK    2  A    between atoms: O_2  and  C_25
REMARK    3  A    between atoms: C_15  and  C_18
REMARK    4  A    between atoms: C_17  and  C_19
REMARK    5  A    between atoms: C_27  and  C_30
REMARK                            x       y       z     vdW  Elec       q    Type
REMARK                         _______ _______ _______ _____ _____    ______ ____
ROOT
ATOM      1  O   UNL     1       5.960   0.384   0.000  0.00  0.00    +0.000 OA
ATOM      2  O   UNL     1       3.079   0.412   0.000  0.00  0.00    +0.000 OA
ATOM      3  O   UNL     1       4.508   2.888   0.000  0.00  0.00    +0.000 OA
ATOM      4  O   UNL     1       5.950   2.916   0.000  0.00  0.00    +0.000 OA
ATOM      5  C   UNL     1       4.508   0.412   0.000  0.00  0.00    +0.000 A 
ATOM      6  C   UNL     1       5.222   0.825   0.000  0.00  0.00    +0.000 A 
ATOM      7  C   UNL     1       3.793   0.825   0.000  0.00  0.00    +0.000 A 
ATOM      8  C   UNL     1       5.222   1.650   0.000  0.00  0.00    +0.000 A 
ATOM      9  C   UNL     1       3.793   1.650   0.000  0.00  0.00    +0.000 A 
ATOM     10  C   UNL     1       4.508   2.062   0.000  0.00  0.00    +0.000 A 
ATOM     11  C   UNL     1       5.960   2.091   0.000  0.00  0.00    +0.000 A 
ATOM     12  C   UNL     1       6.707   0.808   0.000  0.00  0.00    +0.000 A 
ATOM     13  C   UNL     1       6.707   1.667   0.000  0.00  0.00    +0.000 A 
ENDROOT
BRANCH   5  19
ATOM     14  O   UNL     1       5.222  -0.825   0.000  0.00  0.00    +0.000 OA
ATOM     15  O   UNL     1       3.079  -2.062   0.000  0.00  0.00    +0.000 OA
ATOM     16  O   UNL     1       4.508  -2.888   0.000  0.00  0.00    +0.000 OA
ATOM     17  C   UNL     1       3.793  -0.825   0.000  0.00  0.00    +0.000 C 
ATOM     18  C   UNL     1       3.793  -1.650   0.000  0.00  0.00    +0.000 C 
ATOM     19  C   UNL     1       4.508  -0.412   0.000  0.00  0.00    +0.000 C 
ATOM     20  C   UNL     1       4.508  -2.062   0.000  0.00  0.00    +0.000 C 
ATOM     21  C   UNL     1       5.222  -1.650   0.000  0.00  0.00    +0.000 C 
BRANCH  21  23
ATOM     22  O   UNL     1       5.937  -2.888   0.000  0.00  0.00    +0.000 OA
ATOM     23  C   UNL     1       5.937  -2.062   0.000  0.00  0.00    +0.000 C 
ENDBRANCH  21  23
BRANCH  17  24
ATOM     24  O   UNL     1       3.079  -0.412   0.000  0.00  0.00    +0.000 OA
BRANCH  24  26
ATOM     25  O   UNL     1       2.364  -1.650   0.000  0.00  0.00    +0.000 OA
ATOM     26  C   UNL     1       2.364  -0.825   0.000  0.00  0.00    +0.000 C 
ATOM     27  C   UNL     1       1.650  -0.412   0.000  0.00  0.00    +0.000 C 
ENDBRANCH  24  26
ENDBRANCH  17  24
ENDBRANCH   5  19
BRANCH  12  30
ATOM     28  O   UNL     1       8.127  -1.673   0.000  0.00  0.00    +0.000 OA
ATOM     29  O   UNL     1       9.559  -0.853   0.000  0.00  0.00    +0.000 OA
ATOM     30  C   UNL     1       7.420   0.393   0.000  0.00  0.00    +0.000 A 
ATOM     31  C   UNL     1       7.417  -0.432   0.000  0.00  0.00    +0.000 A 
ATOM     32  C   UNL     1       8.136   0.802   0.000  0.00  0.00    +0.000 A 
ATOM     33  C   UNL     1       8.130  -0.848   0.000  0.00  0.00    +0.000 A 
ATOM     34  C   UNL     1       8.849   0.387   0.000  0.00  0.00    +0.000 A 
ATOM     35  C   UNL     1       8.846  -0.438   0.000  0.00  0.00    +0.000 A 
ENDBRANCH  12  30
TORSDOF 5
