REMARK  Name = 11834369
REMARK  3 active torsions:
REMARK  status: ('A' for Active; 'I' for Inactive)
REMARK    1  A    between atoms: O_4  and  C_13
REMARK    2  A    between atoms: O_5  and  C_19
REMARK    3  A    between atoms: C_7  and  C_8
REMARK                            x       y       z     vdW  Elec       q    Type
REMARK                         _______ _______ _______ _____ _____    ______ ____
ROOT
ATOM      1  O   UNL     1       5.278  -0.600   0.000  0.00  0.00    +0.000 OA
ATOM      2  O   UNL     1       5.278   1.875   0.000  0.00  0.00    +0.000 OA
ATOM      3  C   UNL     1       5.993  -0.188   0.000  0.00  0.00    +0.000 A 
ATOM      4  C   UNL     1       4.564  -0.188   0.000  0.00  0.00    +0.000 A 
ATOM      5  C   UNL     1       4.564   0.637   0.000  0.00  0.00    +0.000 A 
ATOM      6  C   UNL     1       3.826  -0.629   0.000  0.00  0.00    +0.000 A 
ATOM      7  C   UNL     1       5.993   0.637   0.000  0.00  0.00    +0.000 A 
ATOM      8  C   UNL     1       5.278   1.050   0.000  0.00  0.00    +0.000 A 
ATOM      9  C   UNL     1       3.826   1.078   0.000  0.00  0.00    +0.000 A 
ATOM     10  C   UNL     1       3.079  -0.205   0.000  0.00  0.00    +0.000 A 
ATOM     11  C   UNL     1       3.079   0.654   0.000  0.00  0.00    +0.000 A 
ENDROOT
BRANCH   3  14
ATOM     12  O   UNL     1       8.917  -0.349   0.000  0.00  0.00    +0.000 OA
ATOM     13  O   UNL     1       8.917  -1.677   0.000  0.00  0.00    +0.000 OA
ATOM     14  C   UNL     1       6.707  -0.600   0.000  0.00  0.00    +0.000 A 
ATOM     15  C   UNL     1       8.136  -0.600   0.000  0.00  0.00    +0.000 A 
ATOM     16  C   UNL     1       7.422  -0.188   0.000  0.00  0.00    +0.000 A 
ATOM     17  C   UNL     1       8.136  -1.425   0.000  0.00  0.00    +0.000 A 
ATOM     18  C   UNL     1       6.707  -1.425   0.000  0.00  0.00    +0.000 A 
ATOM     19  C   UNL     1       7.422  -1.838   0.000  0.00  0.00    +0.000 A 
ATOM     20  C   UNL     1       9.398  -1.013   0.000  0.00  0.00    +0.000 C 
ENDBRANCH   3  14
BRANCH   6  21
ATOM     21  O   UNL     1       3.836  -1.454   0.000  0.00  0.00    +0.000 OA
ATOM     22  C   UNL     1       3.126  -1.875   0.000  0.00  0.00    +0.000 C 
ENDBRANCH   6  21
BRANCH  10  23
ATOM     23  O   UNL     1       2.366  -0.620   0.000  0.00  0.00    +0.000 OA
ATOM     24  C   UNL     1       1.650  -0.210   0.000  0.00  0.00    +0.000 C 
ENDBRANCH  10  23
TORSDOF 3
