REMARK  Name = 44258650
REMARK  2 active torsions:
REMARK  status: ('A' for Active; 'I' for Inactive)
REMARK    1  A    between atoms: O_2  and  C_15
REMARK    2  A    between atoms: C_11  and  C_16
REMARK                            x       y       z     vdW  Elec       q    Type
REMARK                         _______ _______ _______ _____ _____    ______ ____
ROOT
ATOM      1  O   UNL     1       5.245  -0.223   0.000  0.00  0.00    +0.000 OA
ATOM      2  O   UNL     1       3.793   2.281   0.000  0.00  0.00    +0.000 OA
ATOM      3  O   UNL     1       3.793  -1.019   0.000  0.00  0.00    +0.000 OA
ATOM      4  O   UNL     1       2.364  -0.194   0.000  0.00  0.00    +0.000 OA
ATOM      5  O   UNL     1       5.236   2.309   0.000  0.00  0.00    +0.000 OA
ATOM      6  C   UNL     1       4.508   1.044   0.000  0.00  0.00    +0.000 A 
ATOM      7  C   UNL     1       4.508   0.218   0.000  0.00  0.00    +0.000 A 
ATOM      8  C   UNL     1       5.993   0.201   0.000  0.00  0.00    +0.000 A 
ATOM      9  C   UNL     1       3.793   1.456   0.000  0.00  0.00    +0.000 A 
ATOM     10  C   UNL     1       3.793  -0.194   0.000  0.00  0.00    +0.000 A 
ATOM     11  C   UNL     1       5.245   1.484   0.000  0.00  0.00    +0.000 A 
ATOM     12  C   UNL     1       3.079   1.044   0.000  0.00  0.00    +0.000 A 
ATOM     13  C   UNL     1       5.993   1.061   0.000  0.00  0.00    +0.000 A 
ATOM     14  C   UNL     1       3.079   0.218   0.000  0.00  0.00    +0.000 A 
ENDROOT
BRANCH   8  17
ATOM     15  O   UNL     1       7.412  -2.279   0.000  0.00  0.00    +0.000 OA
ATOM     16  O   UNL     1       8.844  -1.460   0.000  0.00  0.00    +0.000 OA
ATOM     17  C   UNL     1       6.706  -0.214   0.000  0.00  0.00    +0.000 A 
ATOM     18  C   UNL     1       6.703  -1.039   0.000  0.00  0.00    +0.000 A 
ATOM     19  C   UNL     1       7.422   0.196   0.000  0.00  0.00    +0.000 A 
ATOM     20  C   UNL     1       7.415  -1.454   0.000  0.00  0.00    +0.000 A 
ATOM     21  C   UNL     1       8.135  -0.220   0.000  0.00  0.00    +0.000 A 
ATOM     22  C   UNL     1       8.132  -1.044   0.000  0.00  0.00    +0.000 A 
ENDBRANCH   8  17
BRANCH  12  23
ATOM     23  O   UNL     1       2.364   1.456   0.000  0.00  0.00    +0.000 OA
ATOM     24  C   UNL     1       1.650   1.044   0.000  0.00  0.00    +0.000 C 
ENDBRANCH  12  23
TORSDOF 2
