REMARK  Name = 11361284
REMARK  5 active torsions:
REMARK  status: ('A' for Active; 'I' for Inactive)
REMARK    1  A    between atoms: O_2  and  C_14
REMARK    2  A    between atoms: O_3  and  C_18
REMARK    3  A    between atoms: O_4  and  C_19
REMARK    4  A    between atoms: O_8  and  C_24
REMARK    5  A    between atoms: C_11  and  C_13
REMARK                            x       y       z     vdW  Elec       q    Type
REMARK                         _______ _______ _______ _____ _____    ______ ____
ROOT
ATOM      1  O   UNL     1       5.006  -0.351   0.000  0.00  0.00    +0.000 OA
ATOM      2  O   UNL     1       3.564   2.153   0.000  0.00  0.00    +0.000 OA
ATOM      3  O   UNL     1       5.006   2.124   0.000  0.00  0.00    +0.000 OA
ATOM      4  O   UNL     1       2.094   1.319   0.000  0.00  0.00    +0.000 OA
ATOM      5  C   UNL     1       4.292   0.886   0.000  0.00  0.00    +0.000 A 
ATOM      6  C   UNL     1       5.721   0.061   0.000  0.00  0.00    +0.000 A 
ATOM      7  C   UNL     1       4.292   0.061   0.000  0.00  0.00    +0.000 A 
ATOM      8  C   UNL     1       5.721   0.886   0.000  0.00  0.00    +0.000 A 
ATOM      9  C   UNL     1       5.006   1.299   0.000  0.00  0.00    +0.000 A 
ATOM     10  C   UNL     1       3.554   1.328   0.000  0.00  0.00    +0.000 A 
ATOM     11  C   UNL     1       3.554  -0.380   0.000  0.00  0.00    +0.000 A 
ATOM     12  C   UNL     1       2.807   0.044   0.000  0.00  0.00    +0.000 A 
ATOM     13  C   UNL     1       2.807   0.904   0.000  0.00  0.00    +0.000 A 
ENDROOT
BRANCH   6  15
ATOM     14  O   UNL     1       8.579   0.061   0.000  0.00  0.00    +0.000 OA
ATOM     15  C   UNL     1       6.435  -0.351   0.000  0.00  0.00    +0.000 A 
ATOM     16  C   UNL     1       6.435  -1.176   0.000  0.00  0.00    +0.000 A 
ATOM     17  C   UNL     1       7.150   0.061   0.000  0.00  0.00    +0.000 A 
ATOM     18  C   UNL     1       7.150  -1.589   0.000  0.00  0.00    +0.000 A 
ATOM     19  C   UNL     1       7.864  -0.351   0.000  0.00  0.00    +0.000 A 
ATOM     20  C   UNL     1       7.864  -1.176   0.000  0.00  0.00    +0.000 A 
BRANCH  16  21
ATOM     21  O   UNL     1       5.721  -1.589   0.000  0.00  0.00    +0.000 OA
ATOM     22  C   UNL     1       5.721  -2.413   0.000  0.00  0.00    +0.000 C 
ENDBRANCH  16  21
BRANCH  20  23
ATOM     23  O   UNL     1       8.579  -1.589   0.000  0.00  0.00    +0.000 OA
ATOM     24  C   UNL     1       8.579  -2.413   0.000  0.00  0.00    +0.000 C 
ENDBRANCH  20  23
ENDBRANCH   6  15
BRANCH   8  25
ATOM     25  O   UNL     1       6.435   1.299   0.000  0.00  0.00    +0.000 OA
ATOM     26  C   UNL     1       6.435   2.124   0.000  0.00  0.00    +0.000 C 
ENDBRANCH   8  25
BRANCH  12  27
ATOM     27  O   UNL     1       2.094  -0.371   0.000  0.00  0.00    +0.000 OA
ATOM     28  C   UNL     1       2.097  -1.196   0.000  0.00  0.00    +0.000 C 
ENDBRANCH  12  27
TORSDOF 5
