REMARK  Name = 44260081
REMARK  5 active torsions:
REMARK  status: ('A' for Active; 'I' for Inactive)
REMARK    1  A    between atoms: O_2  and  C_13
REMARK    2  A    between atoms: O_3  and  C_16
REMARK    3  A    between atoms: O_4  and  C_17
REMARK    4  A    between atoms: O_5  and  C_18
REMARK    5  A    between atoms: C_12  and  C_19
REMARK                            x       y       z     vdW  Elec       q    Type
REMARK                         _______ _______ _______ _____ _____    ______ ____
ROOT
ATOM      1  O   UNL     1       5.245  -0.511   0.000  0.00  0.00    +0.000 OA
ATOM      2  O   UNL     1       3.793   1.993   0.000  0.00  0.00    +0.000 OA
ATOM      3  O   UNL     1       5.236   2.021   0.000  0.00  0.00    +0.000 OA
ATOM      4  C   UNL     1       4.508   0.755   0.000  0.00  0.00    +0.000 A 
ATOM      5  C   UNL     1       4.508  -0.070   0.000  0.00  0.00    +0.000 A 
ATOM      6  C   UNL     1       5.993  -0.087   0.000  0.00  0.00    +0.000 A 
ATOM      7  C   UNL     1       3.793  -0.482   0.000  0.00  0.00    +0.000 A 
ATOM      8  C   UNL     1       3.793   1.168   0.000  0.00  0.00    +0.000 A 
ATOM      9  C   UNL     1       5.245   1.196   0.000  0.00  0.00    +0.000 A 
ATOM     10  C   UNL     1       5.993   0.772   0.000  0.00  0.00    +0.000 A 
ATOM     11  C   UNL     1       3.079  -0.070   0.000  0.00  0.00    +0.000 A 
ATOM     12  C   UNL     1       3.079   0.755   0.000  0.00  0.00    +0.000 A 
ENDROOT
BRANCH   6  15
ATOM     13  O   UNL     1       5.987  -1.737   0.000  0.00  0.00    +0.000 OA
ATOM     14  O   UNL     1       8.844  -1.748   0.000  0.00  0.00    +0.000 OA
ATOM     15  C   UNL     1       6.706  -0.502   0.000  0.00  0.00    +0.000 A 
ATOM     16  C   UNL     1       6.703  -1.327   0.000  0.00  0.00    +0.000 A 
ATOM     17  C   UNL     1       7.422  -0.092   0.000  0.00  0.00    +0.000 A 
ATOM     18  C   UNL     1       7.415  -1.742   0.000  0.00  0.00    +0.000 A 
ATOM     19  C   UNL     1       8.135  -0.508   0.000  0.00  0.00    +0.000 A 
ATOM     20  C   UNL     1       8.132  -1.333   0.000  0.00  0.00    +0.000 A 
ENDBRANCH   6  15
BRANCH   7  21
ATOM     21  O   UNL     1       3.793  -1.307   0.000  0.00  0.00    +0.000 OA
ATOM     22  C   UNL     1       3.079  -1.720   0.000  0.00  0.00    +0.000 C 
ENDBRANCH   7  21
BRANCH  10  23
ATOM     23  O   UNL     1       6.706   1.188   0.000  0.00  0.00    +0.000 OA
ATOM     24  C   UNL     1       6.703   2.013   0.000  0.00  0.00    +0.000 C 
ENDBRANCH  10  23
BRANCH  11  25
ATOM     25  O   UNL     1       2.364  -0.482   0.000  0.00  0.00    +0.000 OA
ATOM     26  C   UNL     1       1.650  -0.070   0.000  0.00  0.00    +0.000 C 
ENDBRANCH  11  25
BRANCH  12  27
ATOM     27  O   UNL     1       2.364   1.168   0.000  0.00  0.00    +0.000 OA
ATOM     28  C   UNL     1       1.650   0.755   0.000  0.00  0.00    +0.000 C 
ENDBRANCH  12  27
TORSDOF 5
