REMARK  Name = 21721836
REMARK  4 active torsions:
REMARK  status: ('A' for Active; 'I' for Inactive)
REMARK    1  A    between atoms: O_2  and  C_14
REMARK    2  A    between atoms: O_4  and  C_19
REMARK    3  A    between atoms: O_6  and  C_20
REMARK    4  A    between atoms: C_8  and  C_11
REMARK                            x       y       z     vdW  Elec       q    Type
REMARK                         _______ _______ _______ _____ _____    ______ ____
ROOT
ATOM      1  O   UNL     1       4.974  -0.222   0.000  0.00  0.00    +0.000 OA
ATOM      2  O   UNL     1       4.964   2.310   0.000  0.00  0.00    +0.000 OA
ATOM      3  O   UNL     1       2.093   1.456   0.000  0.00  0.00    +0.000 OA
ATOM      4  C   UNL     1       5.721   0.202   0.000  0.00  0.00    +0.000 C 
ATOM      5  C   UNL     1       5.721   1.061   0.000  0.00  0.00    +0.000 C 
ATOM      6  C   UNL     1       4.236   1.044   0.000  0.00  0.00    +0.000 A 
ATOM      7  C   UNL     1       4.974   1.485   0.000  0.00  0.00    +0.000 C 
ATOM      8  C   UNL     1       4.236   0.219   0.000  0.00  0.00    +0.000 A 
ATOM      9  C   UNL     1       3.522   1.456   0.000  0.00  0.00    +0.000 A 
ATOM     10  C   UNL     1       3.522  -0.194   0.000  0.00  0.00    +0.000 A 
ATOM     11  C   UNL     1       2.808   1.044   0.000  0.00  0.00    +0.000 A 
ATOM     12  C   UNL     1       2.808   0.219   0.000  0.00  0.00    +0.000 A 
ENDROOT
BRANCH   4  14
ATOM     13  O   UNL     1       8.573  -1.459   0.000  0.00  0.00    +0.000 OA
ATOM     14  C   UNL     1       6.434  -0.213   0.000  0.00  0.00    +0.000 A 
ATOM     15  C   UNL     1       6.431  -1.038   0.000  0.00  0.00    +0.000 A 
ATOM     16  C   UNL     1       7.150   0.196   0.000  0.00  0.00    +0.000 A 
ATOM     17  C   UNL     1       7.144  -1.454   0.000  0.00  0.00    +0.000 A 
ATOM     18  C   UNL     1       7.863  -0.219   0.000  0.00  0.00    +0.000 A 
ATOM     19  C   UNL     1       7.860  -1.044   0.000  0.00  0.00    +0.000 A 
BRANCH  17  20
ATOM     20  O   UNL     1       7.141  -2.279   0.000  0.00  0.00    +0.000 OA
ATOM     21  C   UNL     1       7.854  -2.694   0.000  0.00  0.00    +0.000 C 
ENDBRANCH  17  20
ENDBRANCH   4  14
BRANCH   9  22
ATOM     22  O   UNL     1       3.522   2.281   0.000  0.00  0.00    +0.000 OA
ATOM     23  C   UNL     1       2.808   2.694   0.000  0.00  0.00    +0.000 C 
ENDBRANCH   9  22
BRANCH  12  24
ATOM     24  O   UNL     1       2.093  -0.194   0.000  0.00  0.00    +0.000 OA
ATOM     25  C   UNL     1       2.093  -1.018   0.000  0.00  0.00    +0.000 C 
ENDBRANCH  12  24
TORSDOF 4
