REMARK  Name = 44257581
REMARK  3 active torsions:
REMARK  status: ('A' for Active; 'I' for Inactive)
REMARK    1  A    between atoms: O_4  and  C_8
REMARK    2  A    between atoms: O_5  and  C_21
REMARK    3  A    between atoms: C_7  and  C_10
REMARK                            x       y       z     vdW  Elec       q    Type
REMARK                         _______ _______ _______ _____ _____    ______ ____
ROOT
ATOM      1  O   UNL     1       5.278  -0.619   0.000  0.00  0.00    +0.000 OA
ATOM      2  O   UNL     1       5.278   1.856   0.000  0.00  0.00    +0.000 OA
ATOM      3  C   UNL     1       5.993  -0.206   0.000  0.00  0.00    +0.000 A 
ATOM      4  C   UNL     1       4.564   0.619   0.000  0.00  0.00    +0.000 A 
ATOM      5  C   UNL     1       4.564  -0.206   0.000  0.00  0.00    +0.000 A 
ATOM      6  C   UNL     1       5.993   0.619   0.000  0.00  0.00    +0.000 A 
ATOM      7  C   UNL     1       5.278   1.031   0.000  0.00  0.00    +0.000 A 
ATOM      8  C   UNL     1       3.826  -0.647   0.000  0.00  0.00    +0.000 A 
ATOM      9  C   UNL     1       3.826   1.060   0.000  0.00  0.00    +0.000 A 
ATOM     10  C   UNL     1       3.079  -0.223   0.000  0.00  0.00    +0.000 A 
ATOM     11  C   UNL     1       3.079   0.636   0.000  0.00  0.00    +0.000 A 
ENDROOT
BRANCH   3  14
ATOM     12  O   UNL     1       8.917  -0.367   0.000  0.00  0.00    +0.000 OA
ATOM     13  O   UNL     1       8.917  -1.695   0.000  0.00  0.00    +0.000 OA
ATOM     14  C   UNL     1       6.707  -0.619   0.000  0.00  0.00    +0.000 A 
ATOM     15  C   UNL     1       7.422  -0.206   0.000  0.00  0.00    +0.000 A 
ATOM     16  C   UNL     1       8.136  -0.619   0.000  0.00  0.00    +0.000 A 
ATOM     17  C   UNL     1       8.136  -1.444   0.000  0.00  0.00    +0.000 A 
ATOM     18  C   UNL     1       6.707  -1.444   0.000  0.00  0.00    +0.000 A 
ATOM     19  C   UNL     1       7.422  -1.856   0.000  0.00  0.00    +0.000 A 
ATOM     20  C   UNL     1       9.398  -1.031   0.000  0.00  0.00    +0.000 C 
BRANCH  15  21
ATOM     21  O   UNL     1       7.422   0.619   0.000  0.00  0.00    +0.000 OA
ATOM     22  C   UNL     1       8.136   1.031   0.000  0.00  0.00    +0.000 C 
ENDBRANCH  15  21
ENDBRANCH   3  14
BRANCH  10  23
ATOM     23  O   UNL     1       2.366  -0.639   0.000  0.00  0.00    +0.000 OA
ATOM     24  C   UNL     1       1.650  -0.229   0.000  0.00  0.00    +0.000 C 
ENDBRANCH  10  23
TORSDOF 3
