REMARK  Name = 11681403
REMARK  3 active torsions:
REMARK  status: ('A' for Active; 'I' for Inactive)
REMARK    1  A    between atoms: O_4  and  C_16
REMARK    2  A    between atoms: O_5  and  C_20
REMARK    3  A    between atoms: C_7  and  C_9
REMARK                            x       y       z     vdW  Elec       q    Type
REMARK                         _______ _______ _______ _____ _____    ______ ____
ROOT
ATOM      1  O   UNL     1       5.278  -0.843   0.000  0.00  0.00    +0.000 OA
ATOM      2  O   UNL     1       5.278   1.632   0.000  0.00  0.00    +0.000 OA
ATOM      3  C   UNL     1       4.564   0.394   0.000  0.00  0.00    +0.000 A 
ATOM      4  C   UNL     1       5.993  -0.431   0.000  0.00  0.00    +0.000 A 
ATOM      5  C   UNL     1       4.564  -0.431   0.000  0.00  0.00    +0.000 A 
ATOM      6  C   UNL     1       5.278   0.807   0.000  0.00  0.00    +0.000 A 
ATOM      7  C   UNL     1       5.993   0.394   0.000  0.00  0.00    +0.000 A 
ATOM      8  C   UNL     1       3.826   0.835   0.000  0.00  0.00    +0.000 A 
ATOM      9  C   UNL     1       3.826  -0.872   0.000  0.00  0.00    +0.000 A 
ATOM     10  C   UNL     1       3.079  -0.448   0.000  0.00  0.00    +0.000 A 
ATOM     11  C   UNL     1       3.079   0.411   0.000  0.00  0.00    +0.000 A 
ENDROOT
BRANCH   4  14
ATOM     12  O   UNL     1       8.917  -0.592   0.000  0.00  0.00    +0.000 OA
ATOM     13  O   UNL     1       8.917  -1.920   0.000  0.00  0.00    +0.000 OA
ATOM     14  C   UNL     1       6.707  -0.843   0.000  0.00  0.00    +0.000 A 
ATOM     15  C   UNL     1       8.136  -0.843   0.000  0.00  0.00    +0.000 A 
ATOM     16  C   UNL     1       7.422  -0.431   0.000  0.00  0.00    +0.000 A 
ATOM     17  C   UNL     1       8.136  -1.668   0.000  0.00  0.00    +0.000 A 
ATOM     18  C   UNL     1       6.707  -1.668   0.000  0.00  0.00    +0.000 A 
ATOM     19  C   UNL     1       7.422  -2.081   0.000  0.00  0.00    +0.000 A 
ATOM     20  C   UNL     1       9.398  -1.256   0.000  0.00  0.00    +0.000 C 
ENDBRANCH   4  14
BRANCH   8  21
ATOM     21  O   UNL     1       3.836   1.660   0.000  0.00  0.00    +0.000 OA
ATOM     22  C   UNL     1       3.126   2.081   0.000  0.00  0.00    +0.000 C 
ENDBRANCH   8  21
BRANCH  10  23
ATOM     23  O   UNL     1       2.366  -0.863   0.000  0.00  0.00    +0.000 OA
ATOM     24  C   UNL     1       1.650  -0.454   0.000  0.00  0.00    +0.000 C 
ENDBRANCH  10  23
TORSDOF 3
