REMARK  Name = 14483216
REMARK  3 active torsions:
REMARK  status: ('A' for Active; 'I' for Inactive)
REMARK    1  A    between atoms: O_4  and  C_20
REMARK    2  A    between atoms: O_5  and  C_21
REMARK    3  A    between atoms: C_7  and  C_8
REMARK                            x       y       z     vdW  Elec       q    Type
REMARK                         _______ _______ _______ _____ _____    ______ ____
ROOT
ATOM      1  O   UNL     1       4.562  -0.629   0.000  0.00  0.00    +0.000 OA
ATOM      2  O   UNL     1       4.562   1.846   0.000  0.00  0.00    +0.000 OA
ATOM      3  C   UNL     1       5.277  -0.216   0.000  0.00  0.00    +0.000 A 
ATOM      4  C   UNL     1       3.848   0.609   0.000  0.00  0.00    +0.000 A 
ATOM      5  C   UNL     1       3.848  -0.216   0.000  0.00  0.00    +0.000 A 
ATOM      6  C   UNL     1       5.277   0.609   0.000  0.00  0.00    +0.000 A 
ATOM      7  C   UNL     1       4.562   1.021   0.000  0.00  0.00    +0.000 A 
ATOM      8  C   UNL     1       3.110   1.050   0.000  0.00  0.00    +0.000 A 
ATOM      9  C   UNL     1       3.110  -0.657   0.000  0.00  0.00    +0.000 A 
ATOM     10  C   UNL     1       2.363   0.626   0.000  0.00  0.00    +0.000 A 
ATOM     11  C   UNL     1       2.363  -0.233   0.000  0.00  0.00    +0.000 A 
ENDROOT
BRANCH   3  14
ATOM     12  O   UNL     1       8.201  -0.377   0.000  0.00  0.00    +0.000 OA
ATOM     13  O   UNL     1       8.201  -1.705   0.000  0.00  0.00    +0.000 OA
ATOM     14  C   UNL     1       5.991  -0.629   0.000  0.00  0.00    +0.000 A 
ATOM     15  C   UNL     1       7.420  -0.629   0.000  0.00  0.00    +0.000 A 
ATOM     16  C   UNL     1       6.706  -0.216   0.000  0.00  0.00    +0.000 A 
ATOM     17  C   UNL     1       7.420  -1.454   0.000  0.00  0.00    +0.000 A 
ATOM     18  C   UNL     1       5.991  -1.454   0.000  0.00  0.00    +0.000 A 
ATOM     19  C   UNL     1       6.706  -1.866   0.000  0.00  0.00    +0.000 A 
ATOM     20  C   UNL     1       8.682  -1.041   0.000  0.00  0.00    +0.000 C 
ENDBRANCH   3  14
BRANCH  10  21
ATOM     21  O   UNL     1       1.650   1.041   0.000  0.00  0.00    +0.000 OA
ATOM     22  C   UNL     1       1.653   1.866   0.000  0.00  0.00    +0.000 C 
ENDBRANCH  10  21
BRANCH  11  23
ATOM     23  O   UNL     1       1.650  -0.649   0.000  0.00  0.00    +0.000 OA
ATOM     24  C   UNL     1       1.653  -1.474   0.000  0.00  0.00    +0.000 C 
ENDBRANCH  11  23
TORSDOF 3
