REMARK  Name = 15558313
REMARK  2 active torsions:
REMARK  status: ('A' for Active; 'I' for Inactive)
REMARK    1  A    between atoms: O_2  and  C_13
REMARK    2  A    between atoms: C_11  and  C_12
REMARK                            x       y       z     vdW  Elec       q    Type
REMARK                         _______ _______ _______ _____ _____    ______ ____
ROOT
ATOM      1  O   UNL     1       4.974  -0.224   0.000  0.00  0.00    +0.000 OA
ATOM      2  O   UNL     1       3.522   2.279   0.000  0.00  0.00    +0.000 OA
ATOM      3  O   UNL     1       2.093  -0.196   0.000  0.00  0.00    +0.000 OA
ATOM      4  O   UNL     1       4.964   2.308   0.000  0.00  0.00    +0.000 OA
ATOM      5  C   UNL     1       4.236   1.042   0.000  0.00  0.00    +0.000 A 
ATOM      6  C   UNL     1       4.236   0.217   0.000  0.00  0.00    +0.000 A 
ATOM      7  C   UNL     1       5.721   0.200   0.000  0.00  0.00    +0.000 A 
ATOM      8  C   UNL     1       3.522  -0.196   0.000  0.00  0.00    +0.000 A 
ATOM      9  C   UNL     1       4.974   1.483   0.000  0.00  0.00    +0.000 A 
ATOM     10  C   UNL     1       3.522   1.454   0.000  0.00  0.00    +0.000 A 
ATOM     11  C   UNL     1       5.721   1.059   0.000  0.00  0.00    +0.000 A 
ATOM     12  C   UNL     1       2.808   0.217   0.000  0.00  0.00    +0.000 A 
ATOM     13  C   UNL     1       2.808   1.042   0.000  0.00  0.00    +0.000 A 
ENDROOT
BRANCH   7  17
ATOM     14  O   UNL     1       8.579   0.189   0.000  0.00  0.00    +0.000 OA
ATOM     15  O   UNL     1       7.141  -2.281   0.000  0.00  0.00    +0.000 OA
ATOM     16  O   UNL     1       8.573  -1.461   0.000  0.00  0.00    +0.000 OA
ATOM     17  C   UNL     1       6.434  -0.216   0.000  0.00  0.00    +0.000 A 
ATOM     18  C   UNL     1       6.431  -1.041   0.000  0.00  0.00    +0.000 A 
ATOM     19  C   UNL     1       7.150   0.194   0.000  0.00  0.00    +0.000 A 
ATOM     20  C   UNL     1       7.863  -0.221   0.000  0.00  0.00    +0.000 A 
ATOM     21  C   UNL     1       7.144  -1.456   0.000  0.00  0.00    +0.000 A 
ATOM     22  C   UNL     1       7.860  -1.046   0.000  0.00  0.00    +0.000 A 
ENDBRANCH   7  17
BRANCH   8  23
ATOM     23  O   UNL     1       3.522  -1.021   0.000  0.00  0.00    +0.000 OA
ATOM     24  C   UNL     1       2.808  -1.433   0.000  0.00  0.00    +0.000 C 
ENDBRANCH   8  23
TORSDOF 2
