REMARK  Name = 21676181
REMARK  4 active torsions:
REMARK  status: ('A' for Active; 'I' for Inactive)
REMARK    1  A    between atoms: O_2  and  C_14
REMARK    2  A    between atoms: C_6  and  C_8
REMARK    3  A    between atoms: C_10  and  C_11
REMARK    4  A    between atoms: C_10  and  C_20
REMARK                            x       y       z     vdW  Elec       q    Type
REMARK                         _______ _______ _______ _____ _____    ______ ____
ROOT
ATOM      1  O   UNL     1       8.579   0.918   0.000  0.00  0.00    +0.000 OA
ATOM      2  O   UNL     1       7.150   1.743   0.000  0.00  0.00    +0.000 OA
ATOM      3  C   UNL     1       6.435  -0.320   0.000  0.00  0.00    +0.000 A 
ATOM      4  C   UNL     1       7.864  -0.320   0.000  0.00  0.00    +0.000 A 
ATOM      5  C   UNL     1       7.150  -0.732   0.000  0.00  0.00    +0.000 A 
ATOM      6  C   UNL     1       6.435   0.505   0.000  0.00  0.00    +0.000 A 
ATOM      7  C   UNL     1       7.864   0.505   0.000  0.00  0.00    +0.000 A 
ATOM      8  C   UNL     1       7.150   0.918   0.000  0.00  0.00    +0.000 A 
ENDROOT
BRANCH   3  11
ATOM      9  O   UNL     1       5.006  -1.970   0.000  0.00  0.00    +0.000 OA
ATOM     10  O   UNL     1       2.094  -1.990   0.000  0.00  0.00    +0.000 OA
ATOM     11  C   UNL     1       5.721  -0.732   0.000  0.00  0.00    +0.000 C 
ATOM     12  C   UNL     1       5.006  -0.320   0.000  0.00  0.00    +0.000 C 
ATOM     13  C   UNL     1       5.721  -1.557   0.000  0.00  0.00    +0.000 C 
ATOM     14  C   UNL     1       4.292  -0.732   0.000  0.00  0.00    +0.000 A 
ATOM     15  C   UNL     1       4.292  -1.557   0.000  0.00  0.00    +0.000 A 
ATOM     16  C   UNL     1       3.554  -0.291   0.000  0.00  0.00    +0.000 A 
ATOM     17  C   UNL     1       3.554  -1.998   0.000  0.00  0.00    +0.000 A 
ATOM     18  C   UNL     1       2.807  -0.715   0.000  0.00  0.00    +0.000 A 
ATOM     19  C   UNL     1       2.807  -1.575   0.000  0.00  0.00    +0.000 A 
ENDBRANCH   3  11
BRANCH   4  20
ATOM     20  C   UNL     1       8.579  -0.732   0.000  0.00  0.00    +0.000 C 
ATOM     21  C   UNL     1       8.166  -1.447   0.000  0.00  0.00    +0.000 C 
ATOM     22  C   UNL     1       8.991  -0.018   0.000  0.00  0.00    +0.000 C 
BRANCH  20  23
ATOM     23  C   UNL     1       9.293  -1.145   0.000  0.00  0.00    +0.000 C 
ATOM     24  C   UNL     1       9.293  -1.970   0.000  0.00  0.00    +0.000 C 
ENDBRANCH  20  23
ENDBRANCH   4  20
BRANCH   6  25
ATOM     25  O   UNL     1       5.721   0.918   0.000  0.00  0.00    +0.000 OA
ATOM     26  C   UNL     1       5.721   1.743   0.000  0.00  0.00    +0.000 C 
ENDBRANCH   6  25
TORSDOF 4
