REMARK  Name = 5386959
REMARK  5 active torsions:
REMARK  status: ('A' for Active; 'I' for Inactive)
REMARK    1  A    between atoms: O_2  and  C_14
REMARK    2  A    between atoms: O_3  and  C_15
REMARK    3  A    between atoms: O_4  and  C_18
REMARK    4  A    between atoms: O_8  and  C_22
REMARK    5  A    between atoms: C_12  and  C_17
REMARK                            x       y       z     vdW  Elec       q    Type
REMARK                         _______ _______ _______ _____ _____    ______ ____
ROOT
ATOM      1  O   UNL     1       5.245  -0.144   0.000  0.00  0.00    +0.000 OA
ATOM      2  O   UNL     1       3.793   2.360   0.000  0.00  0.00    +0.000 OA
ATOM      3  O   UNL     1       2.364  -0.115   0.000  0.00  0.00    +0.000 OA
ATOM      4  O   UNL     1       5.236   2.388   0.000  0.00  0.00    +0.000 OA
ATOM      5  C   UNL     1       4.508   1.122   0.000  0.00  0.00    +0.000 A 
ATOM      6  C   UNL     1       4.508   0.297   0.000  0.00  0.00    +0.000 A 
ATOM      7  C   UNL     1       5.993   0.280   0.000  0.00  0.00    +0.000 A 
ATOM      8  C   UNL     1       5.245   1.563   0.000  0.00  0.00    +0.000 A 
ATOM      9  C   UNL     1       5.993   1.139   0.000  0.00  0.00    +0.000 A 
ATOM     10  C   UNL     1       3.793  -0.115   0.000  0.00  0.00    +0.000 A 
ATOM     11  C   UNL     1       3.793   1.535   0.000  0.00  0.00    +0.000 A 
ATOM     12  C   UNL     1       3.079   1.122   0.000  0.00  0.00    +0.000 A 
ATOM     13  C   UNL     1       3.079   0.297   0.000  0.00  0.00    +0.000 A 
ENDROOT
BRANCH   7  15
ATOM     14  O   UNL     1       8.844  -1.381   0.000  0.00  0.00    +0.000 OA
ATOM     15  C   UNL     1       6.706  -0.135   0.000  0.00  0.00    +0.000 A 
ATOM     16  C   UNL     1       6.703  -0.960   0.000  0.00  0.00    +0.000 A 
ATOM     17  C   UNL     1       7.422   0.275   0.000  0.00  0.00    +0.000 A 
ATOM     18  C   UNL     1       7.415  -1.375   0.000  0.00  0.00    +0.000 A 
ATOM     19  C   UNL     1       8.135  -0.141   0.000  0.00  0.00    +0.000 A 
ATOM     20  C   UNL     1       8.132  -0.966   0.000  0.00  0.00    +0.000 A 
BRANCH  18  21
ATOM     21  O   UNL     1       7.412  -2.200   0.000  0.00  0.00    +0.000 OA
ATOM     22  C   UNL     1       8.125  -2.616   0.000  0.00  0.00    +0.000 C 
ENDBRANCH  18  21
ENDBRANCH   7  15
BRANCH   9  23
ATOM     23  O   UNL     1       6.706   1.555   0.000  0.00  0.00    +0.000 OA
ATOM     24  C   UNL     1       6.703   2.380   0.000  0.00  0.00    +0.000 C 
ENDBRANCH   9  23
BRANCH  10  25
ATOM     25  O   UNL     1       3.793  -0.940   0.000  0.00  0.00    +0.000 OA
ATOM     26  C   UNL     1       3.079  -1.353   0.000  0.00  0.00    +0.000 C 
ENDBRANCH  10  25
BRANCH  12  27
ATOM     27  O   UNL     1       2.364   1.535   0.000  0.00  0.00    +0.000 OA
ATOM     28  C   UNL     1       1.650   1.122   0.000  0.00  0.00    +0.000 C 
ENDBRANCH  12  27
TORSDOF 5
