REMARK  Name = 44259900
REMARK  8 active torsions:
REMARK  status: ('A' for Active; 'I' for Inactive)
REMARK    1  A    between atoms: O_2  and  C_14
REMARK    2  A    between atoms: O_3  and  C_15
REMARK    3  A    between atoms: O_4  and  C_18
REMARK    4  A    between atoms: O_5  and  C_19
REMARK    5  A    between atoms: O_6  and  C_20
REMARK    6  A    between atoms: O_8  and  C_22
REMARK    7  A    between atoms: O_9  and  C_24
REMARK    8  A    between atoms: C_12  and  C_13
REMARK                            x       y       z     vdW  Elec       q    Type
REMARK                         _______ _______ _______ _____ _____    ______ ____
ROOT
ATOM      1  O   UNL     1       5.278  -0.431   0.000  0.00  0.00    +0.000 OA
ATOM      2  O   UNL     1       5.278   2.044   0.000  0.00  0.00    +0.000 OA
ATOM      3  C   UNL     1       4.564   0.807   0.000  0.00  0.00    +0.000 A 
ATOM      4  C   UNL     1       4.564  -0.018   0.000  0.00  0.00    +0.000 A 
ATOM      5  C   UNL     1       5.993  -0.018   0.000  0.00  0.00    +0.000 A 
ATOM      6  C   UNL     1       5.993   0.807   0.000  0.00  0.00    +0.000 A 
ATOM      7  C   UNL     1       3.826   1.248   0.000  0.00  0.00    +0.000 A 
ATOM      8  C   UNL     1       5.278   1.219   0.000  0.00  0.00    +0.000 A 
ATOM      9  C   UNL     1       3.826  -0.459   0.000  0.00  0.00    +0.000 A 
ATOM     10  C   UNL     1       3.079   0.824   0.000  0.00  0.00    +0.000 A 
ATOM     11  C   UNL     1       3.079  -0.036   0.000  0.00  0.00    +0.000 A 
ENDROOT
BRANCH   5  12
ATOM     12  C   UNL     1       6.707  -0.431   0.000  0.00  0.00    +0.000 A 
ATOM     13  C   UNL     1       6.707  -1.256   0.000  0.00  0.00    +0.000 A 
ATOM     14  C   UNL     1       7.422  -0.018   0.000  0.00  0.00    +0.000 A 
ATOM     15  C   UNL     1       8.136  -0.431   0.000  0.00  0.00    +0.000 A 
ATOM     16  C   UNL     1       7.422  -1.668   0.000  0.00  0.00    +0.000 A 
ATOM     17  C   UNL     1       8.136  -1.256   0.000  0.00  0.00    +0.000 A 
BRANCH  13  18
ATOM     18  O   UNL     1       5.993  -1.668   0.000  0.00  0.00    +0.000 OA
ATOM     19  C   UNL     1       5.993  -2.493   0.000  0.00  0.00    +0.000 C 
ENDBRANCH  13  18
BRANCH  15  20
ATOM     20  O   UNL     1       8.851  -0.018   0.000  0.00  0.00    +0.000 OA
ATOM     21  C   UNL     1       9.565  -0.431   0.000  0.00  0.00    +0.000 C 
ENDBRANCH  15  20
BRANCH  17  22
ATOM     22  O   UNL     1       8.851  -1.668   0.000  0.00  0.00    +0.000 OA
ATOM     23  C   UNL     1       8.851  -2.493   0.000  0.00  0.00    +0.000 C 
ENDBRANCH  17  22
ENDBRANCH   5  12
BRANCH   6  24
ATOM     24  O   UNL     1       6.707   1.219   0.000  0.00  0.00    +0.000 OA
ATOM     25  C   UNL     1       6.707   2.044   0.000  0.00  0.00    +0.000 C 
ENDBRANCH   6  24
BRANCH   7  26
ATOM     26  O   UNL     1       3.836   2.073   0.000  0.00  0.00    +0.000 OA
ATOM     27  C   UNL     1       3.126   2.493   0.000  0.00  0.00    +0.000 C 
ENDBRANCH   7  26
BRANCH  10  28
ATOM     28  O   UNL     1       2.366   1.239   0.000  0.00  0.00    +0.000 OA
ATOM     29  C   UNL     1       1.650   0.829   0.000  0.00  0.00    +0.000 C 
ENDBRANCH  10  28
BRANCH  11  30
ATOM     30  O   UNL     1       2.366  -0.451   0.000  0.00  0.00    +0.000 OA
ATOM     31  C   UNL     1       2.369  -1.276   0.000  0.00  0.00    +0.000 C 
ENDBRANCH  11  30
TORSDOF 8
