REMARK  Name = 44259999
REMARK  7 active torsions:
REMARK  status: ('A' for Active; 'I' for Inactive)
REMARK    1  A    between atoms: O_3  and  C_24
REMARK    2  A    between atoms: O_3  and  C_31
REMARK    3  A    between atoms: O_7  and  C_28
REMARK    4  A    between atoms: O_7  and  C_33
REMARK    5  A    between atoms: C_23  and  C_30
REMARK    6  A    between atoms: C_29  and  C_32
REMARK    7  A    between atoms: C_36  and  C_41
REMARK                            x       y       z     vdW  Elec       q    Type
REMARK                         _______ _______ _______ _____ _____    ______ ____
ROOT
ATOM      1  O   UNL     1       7.117  -0.821   0.000  0.00  0.00    +0.000 OA
ATOM      2  O   UNL     1       4.205  -0.808   0.000  0.00  0.00    +0.000 OA
ATOM      3  O   UNL     1       7.146   1.653   0.000  0.00  0.00    +0.000 OA
ATOM      4  O   UNL     1       5.704   1.699   0.000  0.00  0.00    +0.000 OA
ATOM      5  C   UNL     1       5.665  -0.833   0.000  0.00  0.00    +0.000 A 
ATOM      6  C   UNL     1       7.846   0.408   0.000  0.00  0.00    +0.000 A 
ATOM      7  C   UNL     1       6.408  -0.401   0.000  0.00  0.00    +0.000 A 
ATOM      8  C   UNL     1       6.417   0.424   0.000  0.00  0.00    +0.000 A 
ATOM      9  C   UNL     1       7.837  -0.417   0.000  0.00  0.00    +0.000 A 
ATOM     10  C   UNL     1       7.136   0.828   0.000  0.00  0.00    +0.000 A 
ATOM     11  C   UNL     1       4.923  -0.401   0.000  0.00  0.00    +0.000 A 
ATOM     12  C   UNL     1       5.685   0.874   0.000  0.00  0.00    +0.000 A 
ATOM     13  C   UNL     1       4.933   0.459   0.000  0.00  0.00    +0.000 A 
ENDROOT
BRANCH   9  16
ATOM     14  O   UNL     1       9.237  -2.909   0.000  0.00  0.00    +0.000 OA
ATOM     15  O   UNL     1      10.675  -2.100   0.000  0.00  0.00    +0.000 OA
ATOM     16  C   UNL     1       8.546  -0.838   0.000  0.00  0.00    +0.000 A 
ATOM     17  C   UNL     1       8.537  -1.663   0.000  0.00  0.00    +0.000 A 
ATOM     18  C   UNL     1       9.265  -0.434   0.000  0.00  0.00    +0.000 A 
ATOM     19  C   UNL     1       9.246  -2.084   0.000  0.00  0.00    +0.000 A 
ATOM     20  C   UNL     1       9.975  -0.855   0.000  0.00  0.00    +0.000 A 
ATOM     21  C   UNL     1       9.966  -1.679   0.000  0.00  0.00    +0.000 A 
ENDBRANCH   9  16
BRANCH   5  22
ATOM     22  O   UNL     1       5.665  -1.658   0.000  0.00  0.00    +0.000 OA
BRANCH  22  31
ATOM     23  O   UNL     1       4.236  -1.658   0.000  0.00  0.00    +0.000 OA
ATOM     24  O   UNL     1       4.236  -4.133   0.000  0.00  0.00    +0.000 OA
ATOM     25  O   UNL     1       2.807  -3.308   0.000  0.00  0.00    +0.000 OA
ATOM     26  O   UNL     1       5.665  -3.308   0.000  0.00  0.00    +0.000 OA
ATOM     27  C   UNL     1       4.236  -3.308   0.000  0.00  0.00    +0.000 C 
ATOM     28  C   UNL     1       3.522  -2.896   0.000  0.00  0.00    +0.000 C 
ATOM     29  C   UNL     1       4.951  -2.896   0.000  0.00  0.00    +0.000 C 
ATOM     30  C   UNL     1       3.522  -2.071   0.000  0.00  0.00    +0.000 C 
ATOM     31  C   UNL     1       4.951  -2.071   0.000  0.00  0.00    +0.000 C 
BRANCH  30  33
ATOM     32  O   UNL     1       2.093  -2.071   0.000  0.00  0.00    +0.000 OA
ATOM     33  C   UNL     1       2.807  -1.658   0.000  0.00  0.00    +0.000 C 
ENDBRANCH  30  33
ENDBRANCH  22  31
ENDBRANCH   5  22
BRANCH   6  34
ATOM     34  O   UNL     1       8.565   0.812   0.000  0.00  0.00    +0.000 OA
BRANCH  34  42
ATOM     35  O   UNL     1       7.865   2.058   0.000  0.00  0.00    +0.000 OA
ATOM     36  O   UNL     1      10.023   3.270   0.000  0.00  0.00    +0.000 OA
ATOM     37  O   UNL     1      10.004   1.620   0.000  0.00  0.00    +0.000 OA
ATOM     38  O   UNL     1       8.604   4.112   0.000  0.00  0.00    +0.000 OA
ATOM     39  C   UNL     1       9.304   2.866   0.000  0.00  0.00    +0.000 C 
ATOM     40  C   UNL     1       9.294   2.041   0.000  0.00  0.00    +0.000 C 
ATOM     41  C   UNL     1       8.594   3.287   0.000  0.00  0.00    +0.000 C 
ATOM     42  C   UNL     1       8.575   1.637   0.000  0.00  0.00    +0.000 C 
ATOM     43  C   UNL     1       7.875   2.882   0.000  0.00  0.00    +0.000 C 
BRANCH  43  46
ATOM     44  O   UNL     1       7.175   4.128   0.000  0.00  0.00    +0.000 OA
ATOM     45  O   UNL     1       6.446   2.899   0.000  0.00  0.00    +0.000 OA
ATOM     46  C   UNL     1       7.165   3.303   0.000  0.00  0.00    +0.000 C 
ENDBRANCH  43  46
ENDBRANCH  34  42
ENDBRANCH   6  34
TORSDOF 7
