REMARK  Name = 42607952
REMARK  4 active torsions:
REMARK  status: ('A' for Active; 'I' for Inactive)
REMARK    1  A    between atoms: O_2  and  C_14
REMARK    2  A    between atoms: O_2  and  C_16
REMARK    3  A    between atoms: O_9  and  C_30
REMARK    4  A    between atoms: C_17  and  C_25
REMARK                            x       y       z     vdW  Elec       q    Type
REMARK                         _______ _______ _______ _____ _____    ______ ____
ROOT
ATOM      1  O   UNL     1       6.399   0.984   0.000  0.00  0.00    +0.000 OA
ATOM      2  O   UNL     1       3.510   0.998   0.000  0.00  0.00    +0.000 OA
ATOM      3  O   UNL     1       4.261   2.230   0.000  0.00  0.00    +0.000 OA
ATOM      4  C   UNL     1       4.951  -0.717   0.000  0.00  0.00    +0.000 A 
ATOM      5  C   UNL     1       6.403   1.809   0.000  0.00  0.00    +0.000 C 
ATOM      6  C   UNL     1       5.690   2.224   0.000  0.00  0.00    +0.000 C 
ATOM      7  C   UNL     1       5.684   0.574   0.000  0.00  0.00    +0.000 A 
ATOM      8  C   UNL     1       4.971   0.990   0.000  0.00  0.00    +0.000 A 
ATOM      9  C   UNL     1       5.693  -0.285   0.000  0.00  0.00    +0.000 A 
ATOM     10  C   UNL     1       4.974   1.815   0.000  0.00  0.00    +0.000 C 
ATOM     11  C   UNL     1       4.208  -0.285   0.000  0.00  0.00    +0.000 A 
ATOM     12  C   UNL     1       4.218   0.574   0.000  0.00  0.00    +0.000 A 
ENDROOT
BRANCH   5  13
ATOM     13  C   UNL     1       7.119   2.219   0.000  0.00  0.00    +0.000 A 
ATOM     14  C   UNL     1       7.122   3.044   0.000  0.00  0.00    +0.000 A 
ATOM     15  C   UNL     1       7.832   1.804   0.000  0.00  0.00    +0.000 A 
ATOM     16  C   UNL     1       7.838   3.454   0.000  0.00  0.00    +0.000 A 
ATOM     17  C   UNL     1       8.548   2.213   0.000  0.00  0.00    +0.000 A 
ATOM     18  C   UNL     1       8.551   3.038   0.000  0.00  0.00    +0.000 A 
BRANCH  18  19
ATOM     19  O   UNL     1       9.267   3.448   0.000  0.00  0.00    +0.000 OA
ATOM     20  C   UNL     1       9.270   4.273   0.000  0.00  0.00    +0.000 C 
ENDBRANCH  18  19
ENDBRANCH   5  13
BRANCH   4  21
ATOM     21  O   UNL     1       4.951  -1.542   0.000  0.00  0.00    +0.000 OA
BRANCH  21  30
ATOM     22  O   UNL     1       3.522  -1.542   0.000  0.00  0.00    +0.000 OA
ATOM     23  O   UNL     1       3.522  -4.017   0.000  0.00  0.00    +0.000 OA
ATOM     24  O   UNL     1       2.093  -3.192   0.000  0.00  0.00    +0.000 OA
ATOM     25  O   UNL     1       4.951  -3.192   0.000  0.00  0.00    +0.000 OA
ATOM     26  C   UNL     1       3.522  -3.192   0.000  0.00  0.00    +0.000 C 
ATOM     27  C   UNL     1       2.808  -2.780   0.000  0.00  0.00    +0.000 C 
ATOM     28  C   UNL     1       4.236  -2.780   0.000  0.00  0.00    +0.000 C 
ATOM     29  C   UNL     1       2.808  -1.955   0.000  0.00  0.00    +0.000 C 
ATOM     30  C   UNL     1       4.236  -1.955   0.000  0.00  0.00    +0.000 C 
ATOM     31  C   UNL     1       2.093  -1.542   0.000  0.00  0.00    +0.000 C 
ENDBRANCH  21  30
ENDBRANCH   4  21
TORSDOF 4
