REMARK  Name = 42607524
REMARK  6 active torsions:
REMARK  status: ('A' for Active; 'I' for Inactive)
REMARK    1  A    between atoms: O_4  and  C_15
REMARK    2  A    between atoms: O_4  and  C_17
REMARK    3  A    between atoms: C_13  and  C_16
REMARK    4  A    between atoms: C_20  and  C_23
REMARK    5  A    between atoms: C_24  and  C_25
REMARK    6  A    between atoms: C_25  and  C_26
REMARK                            x       y       z     vdW  Elec       q    Type
REMARK                         _______ _______ _______ _____ _____    ______ ____
ROOT
ATOM      1  O   UNL     1       7.094  -1.444   0.000  0.00  0.00    +0.000 OA
ATOM      2  C   UNL     1       5.665  -1.444   0.000  0.00  0.00    +0.000 A 
ATOM      3  C   UNL     1       4.951  -1.031   0.000  0.00  0.00    +0.000 A 
ATOM      4  C   UNL     1       6.380  -1.031   0.000  0.00  0.00    +0.000 A 
ATOM      5  C   UNL     1       4.951  -0.206   0.000  0.00  0.00    +0.000 A 
ATOM      6  C   UNL     1       6.380  -0.206   0.000  0.00  0.00    +0.000 A 
ATOM      7  C   UNL     1       5.665   0.206   0.000  0.00  0.00    +0.000 A 
ENDROOT
BRANCH   5   8
ATOM      8  C   UNL     1       4.237   0.206   0.000  0.00  0.00    +0.000 C 
ATOM      9  C   UNL     1       4.237   1.031   0.000  0.00  0.00    +0.000 C 
BRANCH   9  11
ATOM     10  O   UNL     1       2.808   1.031   0.000  0.00  0.00    +0.000 OA
ATOM     11  C   UNL     1       3.522   1.444   0.000  0.00  0.00    +0.000 C 
BRANCH  11  14
ATOM     12  O   UNL     1       2.093   2.269   0.000  0.00  0.00    +0.000 OA
ATOM     13  O   UNL     1       3.522   4.744   0.000  0.00  0.00    +0.000 OA
ATOM     14  C   UNL     1       3.522   2.269   0.000  0.00  0.00    +0.000 A 
ATOM     15  C   UNL     1       2.808   2.681   0.000  0.00  0.00    +0.000 A 
ATOM     16  C   UNL     1       4.237   2.681   0.000  0.00  0.00    +0.000 A 
ATOM     17  C   UNL     1       2.808   3.506   0.000  0.00  0.00    +0.000 A 
ATOM     18  C   UNL     1       4.237   3.506   0.000  0.00  0.00    +0.000 A 
ATOM     19  C   UNL     1       3.522   3.919   0.000  0.00  0.00    +0.000 A 
ENDBRANCH  11  14
ENDBRANCH   9  11
ENDBRANCH   5   8
BRANCH   2  20
ATOM     20  O   UNL     1       5.665  -2.269   0.000  0.00  0.00    +0.000 OA
BRANCH  20  29
ATOM     21  O   UNL     1       4.237  -2.269   0.000  0.00  0.00    +0.000 OA
ATOM     22  O   UNL     1       2.808  -3.919   0.000  0.00  0.00    +0.000 OA
ATOM     23  O   UNL     1       4.237  -4.744   0.000  0.00  0.00    +0.000 OA
ATOM     24  O   UNL     1       5.665  -3.919   0.000  0.00  0.00    +0.000 OA
ATOM     25  C   UNL     1       3.522  -3.506   0.000  0.00  0.00    +0.000 C 
ATOM     26  C   UNL     1       4.237  -3.919   0.000  0.00  0.00    +0.000 C 
ATOM     27  C   UNL     1       3.522  -2.681   0.000  0.00  0.00    +0.000 C 
ATOM     28  C   UNL     1       4.951  -3.506   0.000  0.00  0.00    +0.000 C 
ATOM     29  C   UNL     1       4.951  -2.681   0.000  0.00  0.00    +0.000 C 
BRANCH  27  31
ATOM     30  O   UNL     1       2.093  -2.681   0.000  0.00  0.00    +0.000 OA
ATOM     31  C   UNL     1       2.808  -2.269   0.000  0.00  0.00    +0.000 C 
ENDBRANCH  27  31
ENDBRANCH  20  29
ENDBRANCH   2  20
TORSDOF 6
