REMARK  Name = 42607834
REMARK  3 active torsions:
REMARK  status: ('A' for Active; 'I' for Inactive)
REMARK    1  A    between atoms: O_2  and  C_15
REMARK    2  A    between atoms: O_2  and  C_17
REMARK    3  A    between atoms: C_18  and  C_25
REMARK                            x       y       z     vdW  Elec       q    Type
REMARK                         _______ _______ _______ _____ _____    ______ ____
ROOT
ATOM      1  O   UNL     1       6.399   1.141   0.000  0.00  0.00    +0.000 OA
ATOM      2  O   UNL     1       6.411  -0.535   0.000  0.00  0.00    +0.000 OA
ATOM      3  O   UNL     1       4.261   2.387   0.000  0.00  0.00    +0.000 OA
ATOM      4  C   UNL     1       4.951  -0.561   0.000  0.00  0.00    +0.000 A 
ATOM      5  C   UNL     1       6.403   1.966   0.000  0.00  0.00    +0.000 C 
ATOM      6  C   UNL     1       5.690   2.381   0.000  0.00  0.00    +0.000 C 
ATOM      7  C   UNL     1       5.684   0.731   0.000  0.00  0.00    +0.000 A 
ATOM      8  C   UNL     1       4.971   1.146   0.000  0.00  0.00    +0.000 A 
ATOM      9  C   UNL     1       5.693  -0.128   0.000  0.00  0.00    +0.000 A 
ATOM     10  C   UNL     1       4.974   1.971   0.000  0.00  0.00    +0.000 C 
ATOM     11  C   UNL     1       4.208  -0.128   0.000  0.00  0.00    +0.000 A 
ATOM     12  C   UNL     1       4.218   0.731   0.000  0.00  0.00    +0.000 A 
ENDROOT
BRANCH   5  15
ATOM     13  O   UNL     1       9.261   1.955   0.000  0.00  0.00    +0.000 OA
ATOM     14  O   UNL     1       9.267   3.605   0.000  0.00  0.00    +0.000 OA
ATOM     15  C   UNL     1       7.119   2.376   0.000  0.00  0.00    +0.000 A 
ATOM     16  C   UNL     1       7.832   1.960   0.000  0.00  0.00    +0.000 A 
ATOM     17  C   UNL     1       7.122   3.201   0.000  0.00  0.00    +0.000 A 
ATOM     18  C   UNL     1       8.548   2.370   0.000  0.00  0.00    +0.000 A 
ATOM     19  C   UNL     1       7.838   3.610   0.000  0.00  0.00    +0.000 A 
ATOM     20  C   UNL     1       8.551   3.195   0.000  0.00  0.00    +0.000 A 
ENDBRANCH   5  15
BRANCH   4  21
ATOM     21  O   UNL     1       4.951  -1.386   0.000  0.00  0.00    +0.000 OA
BRANCH  21  30
ATOM     22  O   UNL     1       3.522  -1.386   0.000  0.00  0.00    +0.000 OA
ATOM     23  O   UNL     1       3.522  -3.861   0.000  0.00  0.00    +0.000 OA
ATOM     24  O   UNL     1       2.093  -3.036   0.000  0.00  0.00    +0.000 OA
ATOM     25  O   UNL     1       4.951  -3.036   0.000  0.00  0.00    +0.000 OA
ATOM     26  C   UNL     1       3.522  -3.036   0.000  0.00  0.00    +0.000 C 
ATOM     27  C   UNL     1       2.808  -2.623   0.000  0.00  0.00    +0.000 C 
ATOM     28  C   UNL     1       4.236  -2.623   0.000  0.00  0.00    +0.000 C 
ATOM     29  C   UNL     1       2.808  -1.798   0.000  0.00  0.00    +0.000 C 
ATOM     30  C   UNL     1       4.236  -1.798   0.000  0.00  0.00    +0.000 C 
ATOM     31  C   UNL     1       2.093  -1.386   0.000  0.00  0.00    +0.000 C 
ENDBRANCH  21  30
ENDBRANCH   4  21
TORSDOF 3
