REMARK  Name = 42607820
REMARK  3 active torsions:
REMARK  status: ('A' for Active; 'I' for Inactive)
REMARK    1  A    between atoms: C_11  and  C_16
REMARK    2  A    between atoms: C_15  and  C_17
REMARK    3  A    between atoms: C_21  and  C_26
REMARK                            x       y       z     vdW  Elec       q    Type
REMARK                         _______ _______ _______ _____ _____    ______ ____
ROOT
ATOM      1  O   UNL     1       4.974   0.497   0.000  0.00  0.00    +0.000 OA
ATOM      2  O   UNL     1       2.093   0.526   0.000  0.00  0.00    +0.000 OA
ATOM      3  O   UNL     1       4.964   3.030   0.000  0.00  0.00    +0.000 OA
ATOM      4  C   UNL     1       3.522   0.526   0.000  0.00  0.00    +0.000 A 
ATOM      5  C   UNL     1       4.236   0.939   0.000  0.00  0.00    +0.000 A 
ATOM      6  C   UNL     1       2.808   0.939   0.000  0.00  0.00    +0.000 A 
ATOM      7  C   UNL     1       4.236   1.764   0.000  0.00  0.00    +0.000 A 
ATOM      8  C   UNL     1       5.721   0.921   0.000  0.00  0.00    +0.000 C 
ATOM      9  C   UNL     1       5.721   1.781   0.000  0.00  0.00    +0.000 C 
ATOM     10  C   UNL     1       4.974   2.205   0.000  0.00  0.00    +0.000 C 
ATOM     11  C   UNL     1       2.808   1.764   0.000  0.00  0.00    +0.000 A 
ATOM     12  C   UNL     1       3.522   2.176   0.000  0.00  0.00    +0.000 A 
ENDROOT
BRANCH   4  17
ATOM     13  O   UNL     1       4.236  -0.711   0.000  0.00  0.00    +0.000 OA
ATOM     14  O   UNL     1       2.093  -0.299   0.000  0.00  0.00    +0.000 OA
ATOM     15  O   UNL     1       2.093  -1.949   0.000  0.00  0.00    +0.000 OA
ATOM     16  O   UNL     1       3.522  -2.774   0.000  0.00  0.00    +0.000 OA
ATOM     17  C   UNL     1       3.522  -0.299   0.000  0.00  0.00    +0.000 C 
ATOM     18  C   UNL     1       2.808  -0.711   0.000  0.00  0.00    +0.000 C 
ATOM     19  C   UNL     1       2.808  -1.536   0.000  0.00  0.00    +0.000 C 
ATOM     20  C   UNL     1       3.522  -1.949   0.000  0.00  0.00    +0.000 C 
ATOM     21  C   UNL     1       4.236  -1.536   0.000  0.00  0.00    +0.000 C 
BRANCH  21  23
ATOM     22  O   UNL     1       4.951  -2.774   0.000  0.00  0.00    +0.000 OA
ATOM     23  C   UNL     1       4.951  -1.949   0.000  0.00  0.00    +0.000 C 
ENDBRANCH  21  23
ENDBRANCH   4  17
BRANCH   8  26
ATOM     24  O   UNL     1       7.141  -1.559   0.000  0.00  0.00    +0.000 OA
ATOM     25  O   UNL     1       8.573  -0.740   0.000  0.00  0.00    +0.000 OA
ATOM     26  C   UNL     1       6.434   0.506   0.000  0.00  0.00    +0.000 A 
ATOM     27  C   UNL     1       6.431  -0.319   0.000  0.00  0.00    +0.000 A 
ATOM     28  C   UNL     1       7.150   0.916   0.000  0.00  0.00    +0.000 A 
ATOM     29  C   UNL     1       7.144  -0.734   0.000  0.00  0.00    +0.000 A 
ATOM     30  C   UNL     1       7.863   0.501   0.000  0.00  0.00    +0.000 A 
ATOM     31  C   UNL     1       7.860  -0.324   0.000  0.00  0.00    +0.000 A 
ENDBRANCH   8  26
TORSDOF 3
