REMARK  Name = 42607907
REMARK  4 active torsions:
REMARK  status: ('A' for Active; 'I' for Inactive)
REMARK    1  A    between atoms: O_2  and  C_15
REMARK    2  A    between atoms: O_2  and  C_18
REMARK    3  A    between atoms: C_14  and  C_16
REMARK    4  A    between atoms: C_17  and  C_19
REMARK                            x       y       z     vdW  Elec       q    Type
REMARK                         _______ _______ _______ _____ _____    ______ ____
ROOT
ATOM      1  C   UNL     1       5.665  -1.178   0.000  0.00  0.00    +0.000 A 
ATOM      2  C   UNL     1       5.665   0.472   0.000  0.00  0.00    +0.000 A 
ATOM      3  C   UNL     1       6.380  -0.765   0.000  0.00  0.00    +0.000 A 
ATOM      4  C   UNL     1       4.951  -0.765   0.000  0.00  0.00    +0.000 A 
ATOM      5  C   UNL     1       6.380   0.060   0.000  0.00  0.00    +0.000 A 
ATOM      6  C   UNL     1       4.951   0.060   0.000  0.00  0.00    +0.000 A 
ENDROOT
BRANCH   2  11
ATOM      7  O   UNL     1       6.380   1.710   0.000  0.00  0.00    +0.000 OA
ATOM      8  O   UNL     1       4.236   2.947   0.000  0.00  0.00    +0.000 OA
ATOM      9  O   UNL     1       4.933   4.211   0.000  0.00  0.00    +0.000 OA
ATOM     10  O   UNL     1       7.853   4.222   0.000  0.00  0.00    +0.000 OA
ATOM     11  C   UNL     1       5.665   1.297   0.000  0.00  0.00    +0.000 C 
ATOM     12  C   UNL     1       4.951   1.710   0.000  0.00  0.00    +0.000 C 
ATOM     13  C   UNL     1       4.951   2.535   0.000  0.00  0.00    +0.000 C 
ATOM     14  C   UNL     1       5.665   2.947   0.000  0.00  0.00    +0.000 A 
ATOM     15  C   UNL     1       6.380   2.535   0.000  0.00  0.00    +0.000 A 
ATOM     16  C   UNL     1       5.652   3.807   0.000  0.00  0.00    +0.000 A 
ATOM     17  C   UNL     1       7.131   2.953   0.000  0.00  0.00    +0.000 A 
ATOM     18  C   UNL     1       7.137   3.812   0.000  0.00  0.00    +0.000 A 
ATOM     19  C   UNL     1       6.393   4.242   0.000  0.00  0.00    +0.000 A 
ENDBRANCH   2  11
BRANCH   1  20
ATOM     20  O   UNL     1       5.665  -2.003   0.000  0.00  0.00    +0.000 OA
BRANCH  20  29
ATOM     21  O   UNL     1       4.236  -2.003   0.000  0.00  0.00    +0.000 OA
ATOM     22  O   UNL     1       4.236  -4.478   0.000  0.00  0.00    +0.000 OA
ATOM     23  O   UNL     1       2.808  -3.653   0.000  0.00  0.00    +0.000 OA
ATOM     24  O   UNL     1       5.665  -3.653   0.000  0.00  0.00    +0.000 OA
ATOM     25  C   UNL     1       4.236  -3.653   0.000  0.00  0.00    +0.000 C 
ATOM     26  C   UNL     1       3.522  -3.240   0.000  0.00  0.00    +0.000 C 
ATOM     27  C   UNL     1       4.951  -3.240   0.000  0.00  0.00    +0.000 C 
ATOM     28  C   UNL     1       3.522  -2.415   0.000  0.00  0.00    +0.000 C 
ATOM     29  C   UNL     1       4.951  -2.415   0.000  0.00  0.00    +0.000 C 
BRANCH  28  31
ATOM     30  O   UNL     1       2.093  -2.415   0.000  0.00  0.00    +0.000 OA
ATOM     31  C   UNL     1       2.808  -2.003   0.000  0.00  0.00    +0.000 C 
ENDBRANCH  28  31
ENDBRANCH  20  29
ENDBRANCH   1  20
TORSDOF 4
