REMARK  Name = 131752464
REMARK  4 active torsions:
REMARK  status: ('A' for Active; 'I' for Inactive)
REMARK    1  A    between atoms: O_2  and  C_15
REMARK    2  A    between atoms: O_2  and  C_17
REMARK    3  A    between atoms: C_14  and  C_16
REMARK    4  A    between atoms: C_18  and  C_26
REMARK                            x       y       z     vdW  Elec       q    Type
REMARK                         _______ _______ _______ _____ _____    ______ ____
ROOT
ATOM      1  O   UNL     1       7.131   1.354   0.000  0.00  0.00    +0.000 OA
ATOM      2  O   UNL     1       7.094  -0.302   0.000  0.00  0.00    +0.000 OA
ATOM      3  O   UNL     1       4.236   1.348   0.000  0.00  0.00    +0.000 OA
ATOM      4  O   UNL     1       4.933   2.612   0.000  0.00  0.00    +0.000 OA
ATOM      5  C   UNL     1       5.665  -0.302   0.000  0.00  0.00    +0.000 A 
ATOM      6  C   UNL     1       7.137   2.213   0.000  0.00  0.00    +0.000 C 
ATOM      7  C   UNL     1       6.380   0.936   0.000  0.00  0.00    +0.000 A 
ATOM      8  C   UNL     1       6.393   2.643   0.000  0.00  0.00    +0.000 C 
ATOM      9  C   UNL     1       5.665   1.348   0.000  0.00  0.00    +0.000 A 
ATOM     10  C   UNL     1       6.380   0.111   0.000  0.00  0.00    +0.000 A 
ATOM     11  C   UNL     1       4.951   0.111   0.000  0.00  0.00    +0.000 A 
ATOM     12  C   UNL     1       5.652   2.207   0.000  0.00  0.00    +0.000 C 
ATOM     13  C   UNL     1       4.951   0.936   0.000  0.00  0.00    +0.000 A 
ENDROOT
BRANCH   6  14
ATOM     14  C   UNL     1       7.853   2.623   0.000  0.00  0.00    +0.000 A 
ATOM     15  C   UNL     1       7.856   3.448   0.000  0.00  0.00    +0.000 A 
ATOM     16  C   UNL     1       8.566   2.208   0.000  0.00  0.00    +0.000 A 
ATOM     17  C   UNL     1       8.572   3.858   0.000  0.00  0.00    +0.000 A 
ATOM     18  C   UNL     1       9.282   2.617   0.000  0.00  0.00    +0.000 A 
ATOM     19  C   UNL     1       9.285   3.442   0.000  0.00  0.00    +0.000 A 
ENDBRANCH   6  14
BRANCH   5  20
ATOM     20  O   UNL     1       5.665  -1.127   0.000  0.00  0.00    +0.000 OA
BRANCH  20  29
ATOM     21  O   UNL     1       4.236  -1.127   0.000  0.00  0.00    +0.000 OA
ATOM     22  O   UNL     1       4.236  -3.602   0.000  0.00  0.00    +0.000 OA
ATOM     23  O   UNL     1       2.808  -2.777   0.000  0.00  0.00    +0.000 OA
ATOM     24  O   UNL     1       5.665  -2.777   0.000  0.00  0.00    +0.000 OA
ATOM     25  C   UNL     1       4.236  -2.777   0.000  0.00  0.00    +0.000 C 
ATOM     26  C   UNL     1       3.522  -2.364   0.000  0.00  0.00    +0.000 C 
ATOM     27  C   UNL     1       4.951  -2.364   0.000  0.00  0.00    +0.000 C 
ATOM     28  C   UNL     1       3.522  -1.539   0.000  0.00  0.00    +0.000 C 
ATOM     29  C   UNL     1       4.951  -1.539   0.000  0.00  0.00    +0.000 C 
BRANCH  28  31
ATOM     30  O   UNL     1       2.093  -1.539   0.000  0.00  0.00    +0.000 OA
ATOM     31  C   UNL     1       2.808  -1.127   0.000  0.00  0.00    +0.000 C 
ENDBRANCH  28  31
ENDBRANCH  20  29
ENDBRANCH   5  20
TORSDOF 4
