REMARK  Name = 42607822
REMARK  4 active torsions:
REMARK  status: ('A' for Active; 'I' for Inactive)
REMARK    1  A    between atoms: O_2  and  C_15
REMARK    2  A    between atoms: O_2  and  C_17
REMARK    3  A    between atoms: C_14  and  C_16
REMARK    4  A    between atoms: C_18  and  C_19
REMARK                            x       y       z     vdW  Elec       q    Type
REMARK                         _______ _______ _______ _____ _____    ______ ____
ROOT
ATOM      1  O   UNL     1       7.094  -0.855   0.000  0.00  0.00    +0.000 OA
ATOM      2  C   UNL     1       5.665  -0.855   0.000  0.00  0.00    +0.000 A 
ATOM      3  C   UNL     1       4.951   0.383   0.000  0.00  0.00    +0.000 A 
ATOM      4  C   UNL     1       4.951  -0.442   0.000  0.00  0.00    +0.000 A 
ATOM      5  C   UNL     1       6.380  -0.442   0.000  0.00  0.00    +0.000 A 
ATOM      6  C   UNL     1       5.665   0.795   0.000  0.00  0.00    +0.000 A 
ATOM      7  C   UNL     1       6.380   0.383   0.000  0.00  0.00    +0.000 A 
ENDROOT
BRANCH   3  11
ATOM      8  O   UNL     1       4.236   1.621   0.000  0.00  0.00    +0.000 OA
ATOM      9  O   UNL     1       2.093   0.383   0.000  0.00  0.00    +0.000 OA
ATOM     10  O   UNL     1       2.797   4.153   0.000  0.00  0.00    +0.000 OA
ATOM     11  C   UNL     1       4.236   0.795   0.000  0.00  0.00    +0.000 C 
ATOM     12  C   UNL     1       3.522   0.383   0.000  0.00  0.00    +0.000 C 
ATOM     13  C   UNL     1       2.808   0.795   0.000  0.00  0.00    +0.000 C 
ATOM     14  C   UNL     1       2.808   1.621   0.000  0.00  0.00    +0.000 A 
ATOM     15  C   UNL     1       3.522   2.033   0.000  0.00  0.00    +0.000 A 
ATOM     16  C   UNL     1       2.057   2.039   0.000  0.00  0.00    +0.000 A 
ATOM     17  C   UNL     1       3.535   2.892   0.000  0.00  0.00    +0.000 A 
ATOM     18  C   UNL     1       2.794   3.328   0.000  0.00  0.00    +0.000 A 
ATOM     19  C   UNL     1       2.050   2.898   0.000  0.00  0.00    +0.000 A 
ENDBRANCH   3  11
BRANCH   2  20
ATOM     20  O   UNL     1       5.665  -1.679   0.000  0.00  0.00    +0.000 OA
BRANCH  20  29
ATOM     21  O   UNL     1       4.236  -1.679   0.000  0.00  0.00    +0.000 OA
ATOM     22  O   UNL     1       4.236  -4.154   0.000  0.00  0.00    +0.000 OA
ATOM     23  O   UNL     1       2.808  -3.329   0.000  0.00  0.00    +0.000 OA
ATOM     24  O   UNL     1       5.665  -3.329   0.000  0.00  0.00    +0.000 OA
ATOM     25  C   UNL     1       4.236  -3.329   0.000  0.00  0.00    +0.000 C 
ATOM     26  C   UNL     1       3.522  -2.917   0.000  0.00  0.00    +0.000 C 
ATOM     27  C   UNL     1       4.951  -2.917   0.000  0.00  0.00    +0.000 C 
ATOM     28  C   UNL     1       3.522  -2.092   0.000  0.00  0.00    +0.000 C 
ATOM     29  C   UNL     1       4.951  -2.092   0.000  0.00  0.00    +0.000 C 
BRANCH  28  31
ATOM     30  O   UNL     1       2.093  -2.092   0.000  0.00  0.00    +0.000 OA
ATOM     31  C   UNL     1       2.808  -1.679   0.000  0.00  0.00    +0.000 C 
ENDBRANCH  28  31
ENDBRANCH  20  29
ENDBRANCH   2  20
TORSDOF 4
