REMARK  Name = 44260076
REMARK  7 active torsions:
REMARK  status: ('A' for Active; 'I' for Inactive)
REMARK    1  A    between atoms: O_2  and  C_13
REMARK    2  A    between atoms: O_3  and  C_15
REMARK    3  A    between atoms: O_4  and  C_17
REMARK    4  A    between atoms: O_5  and  C_18
REMARK    5  A    between atoms: O_6  and  C_19
REMARK    6  A    between atoms: O_8  and  C_25
REMARK    7  A    between atoms: C_14  and  C_20
REMARK                            x       y       z     vdW  Elec       q    Type
REMARK                         _______ _______ _______ _____ _____    ______ ____
ROOT
ATOM      1  O   UNL     1       5.245  -0.303   0.000  0.00  0.00    +0.000 OA
ATOM      2  O   UNL     1       5.236   2.229   0.000  0.00  0.00    +0.000 OA
ATOM      3  C   UNL     1       4.508   0.963   0.000  0.00  0.00    +0.000 A 
ATOM      4  C   UNL     1       4.508   0.138   0.000  0.00  0.00    +0.000 A 
ATOM      5  C   UNL     1       3.793   1.376   0.000  0.00  0.00    +0.000 A 
ATOM      6  C   UNL     1       5.993   0.121   0.000  0.00  0.00    +0.000 A 
ATOM      7  C   UNL     1       3.793  -0.274   0.000  0.00  0.00    +0.000 A 
ATOM      8  C   UNL     1       5.245   1.405   0.000  0.00  0.00    +0.000 A 
ATOM      9  C   UNL     1       5.993   0.981   0.000  0.00  0.00    +0.000 A 
ATOM     10  C   UNL     1       3.079   0.963   0.000  0.00  0.00    +0.000 A 
ATOM     11  C   UNL     1       3.079   0.138   0.000  0.00  0.00    +0.000 A 
ENDROOT
BRANCH   6  14
ATOM     12  O   UNL     1       8.851   0.110   0.000  0.00  0.00    +0.000 OA
ATOM     13  O   UNL     1       7.412  -2.359   0.000  0.00  0.00    +0.000 OA
ATOM     14  C   UNL     1       6.706  -0.294   0.000  0.00  0.00    +0.000 A 
ATOM     15  C   UNL     1       6.703  -1.119   0.000  0.00  0.00    +0.000 A 
ATOM     16  C   UNL     1       7.422   0.116   0.000  0.00  0.00    +0.000 A 
ATOM     17  C   UNL     1       8.135  -0.300   0.000  0.00  0.00    +0.000 A 
ATOM     18  C   UNL     1       7.415  -1.534   0.000  0.00  0.00    +0.000 A 
ATOM     19  C   UNL     1       8.132  -1.125   0.000  0.00  0.00    +0.000 A 
BRANCH  19  20
ATOM     20  O   UNL     1       8.844  -1.540   0.000  0.00  0.00    +0.000 OA
ATOM     21  C   UNL     1       8.841  -2.365   0.000  0.00  0.00    +0.000 C 
ENDBRANCH  19  20
ENDBRANCH   6  14
BRANCH   5  22
ATOM     22  O   UNL     1       3.793   2.201   0.000  0.00  0.00    +0.000 OA
ATOM     23  C   UNL     1       3.079   2.613   0.000  0.00  0.00    +0.000 C 
ENDBRANCH   5  22
BRANCH   7  24
ATOM     24  O   UNL     1       3.793  -1.099   0.000  0.00  0.00    +0.000 OA
ATOM     25  C   UNL     1       3.079  -1.512   0.000  0.00  0.00    +0.000 C 
ENDBRANCH   7  24
BRANCH   9  26
ATOM     26  O   UNL     1       6.706   1.396   0.000  0.00  0.00    +0.000 OA
ATOM     27  C   UNL     1       6.703   2.221   0.000  0.00  0.00    +0.000 C 
ENDBRANCH   9  26
BRANCH  10  28
ATOM     28  O   UNL     1       2.364   1.376   0.000  0.00  0.00    +0.000 OA
ATOM     29  C   UNL     1       1.650   0.963   0.000  0.00  0.00    +0.000 C 
ENDBRANCH  10  28
BRANCH  11  30
ATOM     30  O   UNL     1       2.364  -0.274   0.000  0.00  0.00    +0.000 OA
ATOM     31  C   UNL     1       1.650   0.138   0.000  0.00  0.00    +0.000 C 
ENDBRANCH  11  30
TORSDOF 7
