REMARK  Name = 42607638
REMARK  7 active torsions:
REMARK  status: ('A' for Active; 'I' for Inactive)
REMARK    1  A    between atoms: O_2  and  C_15
REMARK    2  A    between atoms: O_2  and  C_17
REMARK    3  A    between atoms: C_14  and  C_16
REMARK    4  A    between atoms: C_20  and  C_23
REMARK    5  A    between atoms: C_23  and  C_24
REMARK    6  A    between atoms: C_24  and  C_25
REMARK    7  A    between atoms: C_25  and  C_26
REMARK                            x       y       z     vdW  Elec       q    Type
REMARK                         _______ _______ _______ _____ _____    ______ ____
ROOT
ATOM      1  O   UNL     1       4.236   0.747   0.000  0.00  0.00    +0.000 OA
ATOM      2  O   UNL     1       7.094   0.747   0.000  0.00  0.00    +0.000 OA
ATOM      3  C   UNL     1       5.665  -0.903   0.000  0.00  0.00    +0.000 A 
ATOM      4  C   UNL     1       6.380  -0.491   0.000  0.00  0.00    +0.000 A 
ATOM      5  C   UNL     1       4.951  -0.491   0.000  0.00  0.00    +0.000 A 
ATOM      6  C   UNL     1       5.665   0.747   0.000  0.00  0.00    +0.000 A 
ATOM      7  C   UNL     1       4.951   0.334   0.000  0.00  0.00    +0.000 A 
ATOM      8  C   UNL     1       6.380   0.334   0.000  0.00  0.00    +0.000 A 
ENDROOT
BRANCH   6  10
ATOM      9  O   UNL     1       4.951   1.984   0.000  0.00  0.00    +0.000 OA
ATOM     10  C   UNL     1       5.665   1.572   0.000  0.00  0.00    +0.000 C 
BRANCH  10  11
ATOM     11  C   UNL     1       6.380   1.984   0.000  0.00  0.00    +0.000 C 
BRANCH  11  13
ATOM     12  O   UNL     1       5.665   3.222   0.000  0.00  0.00    +0.000 OA
ATOM     13  C   UNL     1       6.380   2.809   0.000  0.00  0.00    +0.000 C 
BRANCH  13  14
ATOM     14  C   UNL     1       7.094   3.222   0.000  0.00  0.00    +0.000 A 
ATOM     15  C   UNL     1       7.094   4.047   0.000  0.00  0.00    +0.000 A 
ATOM     16  C   UNL     1       7.809   2.809   0.000  0.00  0.00    +0.000 A 
ATOM     17  C   UNL     1       7.809   4.459   0.000  0.00  0.00    +0.000 A 
ATOM     18  C   UNL     1       8.523   3.222   0.000  0.00  0.00    +0.000 A 
ATOM     19  C   UNL     1       8.523   4.047   0.000  0.00  0.00    +0.000 A 
ENDBRANCH  13  14
ENDBRANCH  11  13
ENDBRANCH  10  11
ENDBRANCH   6  10
BRANCH   3  20
ATOM     20  O   UNL     1       5.665  -1.728   0.000  0.00  0.00    +0.000 OA
BRANCH  20  29
ATOM     21  O   UNL     1       4.236  -1.728   0.000  0.00  0.00    +0.000 OA
ATOM     22  O   UNL     1       4.236  -4.203   0.000  0.00  0.00    +0.000 OA
ATOM     23  O   UNL     1       2.808  -3.378   0.000  0.00  0.00    +0.000 OA
ATOM     24  O   UNL     1       5.665  -3.378   0.000  0.00  0.00    +0.000 OA
ATOM     25  C   UNL     1       4.236  -3.378   0.000  0.00  0.00    +0.000 C 
ATOM     26  C   UNL     1       3.522  -2.966   0.000  0.00  0.00    +0.000 C 
ATOM     27  C   UNL     1       4.951  -2.966   0.000  0.00  0.00    +0.000 C 
ATOM     28  C   UNL     1       3.522  -2.141   0.000  0.00  0.00    +0.000 C 
ATOM     29  C   UNL     1       4.951  -2.141   0.000  0.00  0.00    +0.000 C 
BRANCH  28  31
ATOM     30  O   UNL     1       2.093  -2.141   0.000  0.00  0.00    +0.000 OA
ATOM     31  C   UNL     1       2.808  -1.728   0.000  0.00  0.00    +0.000 C 
ENDBRANCH  28  31
ENDBRANCH  20  29
ENDBRANCH   3  20
TORSDOF 7
