REMARK  Name = 5386963
REMARK  7 active torsions:
REMARK  status: ('A' for Active; 'I' for Inactive)
REMARK    1  A    between atoms: O_2  and  C_15
REMARK    2  A    between atoms: O_3  and  C_17
REMARK    3  A    between atoms: O_4  and  C_19
REMARK    4  A    between atoms: O_8  and  C_23
REMARK    5  A    between atoms: O_9  and  C_24
REMARK    6  A    between atoms: O_10  and  C_25
REMARK    7  A    between atoms: C_13  and  C_14
REMARK                            x       y       z     vdW  Elec       q    Type
REMARK                         _______ _______ _______ _____ _____    ______ ____
ROOT
ATOM      1  O   UNL     1       5.245  -0.146   0.000  0.00  0.00    +0.000 OA
ATOM      2  O   UNL     1       3.793   2.357   0.000  0.00  0.00    +0.000 OA
ATOM      3  O   UNL     1       5.236   2.386   0.000  0.00  0.00    +0.000 OA
ATOM      4  O   UNL     1       2.364  -0.118   0.000  0.00  0.00    +0.000 OA
ATOM      5  C   UNL     1       4.508   1.120   0.000  0.00  0.00    +0.000 A 
ATOM      6  C   UNL     1       4.508   0.295   0.000  0.00  0.00    +0.000 A 
ATOM      7  C   UNL     1       5.993   0.277   0.000  0.00  0.00    +0.000 A 
ATOM      8  C   UNL     1       5.993   1.137   0.000  0.00  0.00    +0.000 A 
ATOM      9  C   UNL     1       5.245   1.561   0.000  0.00  0.00    +0.000 A 
ATOM     10  C   UNL     1       3.793  -0.118   0.000  0.00  0.00    +0.000 A 
ATOM     11  C   UNL     1       3.793   1.532   0.000  0.00  0.00    +0.000 A 
ATOM     12  C   UNL     1       3.079   1.120   0.000  0.00  0.00    +0.000 A 
ATOM     13  C   UNL     1       3.079   0.295   0.000  0.00  0.00    +0.000 A 
ENDROOT
BRANCH   7  14
ATOM     14  C   UNL     1       6.706  -0.138   0.000  0.00  0.00    +0.000 A 
ATOM     15  C   UNL     1       6.703  -0.963   0.000  0.00  0.00    +0.000 A 
ATOM     16  C   UNL     1       7.422   0.272   0.000  0.00  0.00    +0.000 A 
ATOM     17  C   UNL     1       8.135  -0.143   0.000  0.00  0.00    +0.000 A 
ATOM     18  C   UNL     1       7.415  -1.378   0.000  0.00  0.00    +0.000 A 
ATOM     19  C   UNL     1       8.132  -0.968   0.000  0.00  0.00    +0.000 A 
BRANCH  17  20
ATOM     20  O   UNL     1       8.851   0.266   0.000  0.00  0.00    +0.000 OA
ATOM     21  C   UNL     1       9.564  -0.149   0.000  0.00  0.00    +0.000 C 
ENDBRANCH  17  20
BRANCH  18  22
ATOM     22  O   UNL     1       7.412  -2.203   0.000  0.00  0.00    +0.000 OA
ATOM     23  C   UNL     1       6.696  -2.613   0.000  0.00  0.00    +0.000 C 
ENDBRANCH  18  22
BRANCH  19  24
ATOM     24  O   UNL     1       8.844  -1.384   0.000  0.00  0.00    +0.000 OA
ATOM     25  C   UNL     1       8.841  -2.209   0.000  0.00  0.00    +0.000 C 
ENDBRANCH  19  24
ENDBRANCH   7  14
BRANCH   8  26
ATOM     26  O   UNL     1       6.706   1.552   0.000  0.00  0.00    +0.000 OA
ATOM     27  C   UNL     1       6.703   2.377   0.000  0.00  0.00    +0.000 C 
ENDBRANCH   8  26
BRANCH  10  28
ATOM     28  O   UNL     1       3.793  -0.943   0.000  0.00  0.00    +0.000 OA
ATOM     29  C   UNL     1       3.079  -1.355   0.000  0.00  0.00    +0.000 C 
ENDBRANCH  10  28
BRANCH  12  30
ATOM     30  O   UNL     1       2.364   1.532   0.000  0.00  0.00    +0.000 OA
ATOM     31  C   UNL     1       1.650   1.120   0.000  0.00  0.00    +0.000 C 
ENDBRANCH  12  30
TORSDOF 7
