REMARK  Name = 44260086
REMARK  7 active torsions:
REMARK  status: ('A' for Active; 'I' for Inactive)
REMARK    1  A    between atoms: O_2  and  C_14
REMARK    2  A    between atoms: O_3  and  C_15
REMARK    3  A    between atoms: O_4  and  C_19
REMARK    4  A    between atoms: O_5  and  C_20
REMARK    5  A    between atoms: O_8  and  C_23
REMARK    6  A    between atoms: O_10  and  C_25
REMARK    7  A    between atoms: C_13  and  C_18
REMARK                            x       y       z     vdW  Elec       q    Type
REMARK                         _______ _______ _______ _____ _____    ______ ____
ROOT
ATOM      1  O   UNL     1       5.245  -0.349   0.000  0.00  0.00    +0.000 OA
ATOM      2  O   UNL     1       3.793   2.155   0.000  0.00  0.00    +0.000 OA
ATOM      3  O   UNL     1       5.236   2.183   0.000  0.00  0.00    +0.000 OA
ATOM      4  C   UNL     1       4.508   0.917   0.000  0.00  0.00    +0.000 A 
ATOM      5  C   UNL     1       4.508   0.092   0.000  0.00  0.00    +0.000 A 
ATOM      6  C   UNL     1       5.993   0.075   0.000  0.00  0.00    +0.000 A 
ATOM      7  C   UNL     1       3.793  -0.320   0.000  0.00  0.00    +0.000 A 
ATOM      8  C   UNL     1       5.993   0.935   0.000  0.00  0.00    +0.000 A 
ATOM      9  C   UNL     1       5.245   1.359   0.000  0.00  0.00    +0.000 A 
ATOM     10  C   UNL     1       3.793   1.330   0.000  0.00  0.00    +0.000 A 
ATOM     11  C   UNL     1       3.079   0.092   0.000  0.00  0.00    +0.000 A 
ATOM     12  C   UNL     1       3.079   0.917   0.000  0.00  0.00    +0.000 A 
ENDROOT
BRANCH   6  14
ATOM     13  O   UNL     1       5.987  -1.575   0.000  0.00  0.00    +0.000 OA
ATOM     14  C   UNL     1       6.706  -0.340   0.000  0.00  0.00    +0.000 A 
ATOM     15  C   UNL     1       6.703  -1.165   0.000  0.00  0.00    +0.000 A 
ATOM     16  C   UNL     1       7.422   0.070   0.000  0.00  0.00    +0.000 A 
ATOM     17  C   UNL     1       8.135  -0.345   0.000  0.00  0.00    +0.000 A 
ATOM     18  C   UNL     1       7.415  -1.580   0.000  0.00  0.00    +0.000 A 
ATOM     19  C   UNL     1       8.132  -1.171   0.000  0.00  0.00    +0.000 A 
BRANCH  17  20
ATOM     20  O   UNL     1       8.851   0.064   0.000  0.00  0.00    +0.000 OA
ATOM     21  C   UNL     1       9.564  -0.351   0.000  0.00  0.00    +0.000 C 
ENDBRANCH  17  20
BRANCH  19  22
ATOM     22  O   UNL     1       8.844  -1.586   0.000  0.00  0.00    +0.000 OA
ATOM     23  C   UNL     1       8.841  -2.411   0.000  0.00  0.00    +0.000 C 
ENDBRANCH  19  22
ENDBRANCH   6  14
BRANCH   7  24
ATOM     24  O   UNL     1       3.793  -1.145   0.000  0.00  0.00    +0.000 OA
ATOM     25  C   UNL     1       3.079  -1.558   0.000  0.00  0.00    +0.000 C 
ENDBRANCH   7  24
BRANCH   8  26
ATOM     26  O   UNL     1       6.706   1.350   0.000  0.00  0.00    +0.000 OA
ATOM     27  C   UNL     1       6.703   2.175   0.000  0.00  0.00    +0.000 C 
ENDBRANCH   8  26
BRANCH  11  28
ATOM     28  O   UNL     1       2.364  -0.320   0.000  0.00  0.00    +0.000 OA
ATOM     29  C   UNL     1       1.650   0.092   0.000  0.00  0.00    +0.000 C 
ENDBRANCH  11  28
BRANCH  12  30
ATOM     30  O   UNL     1       2.364   1.330   0.000  0.00  0.00    +0.000 OA
ATOM     31  C   UNL     1       1.650   0.917   0.000  0.00  0.00    +0.000 C 
ENDBRANCH  12  30
TORSDOF 7
