REMARK  Name = 42607569
REMARK  9 active torsions:
REMARK  status: ('A' for Active; 'I' for Inactive)
REMARK    1  A    between atoms: O_3  and  C_22
REMARK    2  A    between atoms: O_3  and  C_26
REMARK    3  A    between atoms: O_8  and  C_27
REMARK    4  A    between atoms: O_8  and  C_29
REMARK    5  A    between atoms: C_17  and  C_26
REMARK    6  A    between atoms: C_25  and  C_28
REMARK    7  A    between atoms: C_34  and  C_35
REMARK    8  A    between atoms: C_35  and  C_36
REMARK    9  A    between atoms: C_37  and  C_38
REMARK                            x       y       z     vdW  Elec       q    Type
REMARK                         _______ _______ _______ _____ _____    ______ ____
ROOT
ATOM      1  O   UNL     1       5.665  -1.444   0.000  0.00  0.00    +0.000 OA
ATOM      2  O   UNL     1       6.380  -3.506   0.000  0.00  0.00    +0.000 OA
ATOM      3  O   UNL     1       7.809  -2.681   0.000  0.00  0.00    +0.000 OA
ATOM      4  O   UNL     1       7.809  -1.031   0.000  0.00  0.00    +0.000 OA
ATOM      5  C   UNL     1       5.665  -2.269   0.000  0.00  0.00    +0.000 C 
ATOM      6  C   UNL     1       6.380  -2.681   0.000  0.00  0.00    +0.000 C 
ATOM      7  C   UNL     1       7.094  -2.269   0.000  0.00  0.00    +0.000 C 
ATOM      8  C   UNL     1       7.094  -1.444   0.000  0.00  0.00    +0.000 C 
ATOM      9  C   UNL     1       6.380  -1.031   0.000  0.00  0.00    +0.000 C 
ENDROOT
BRANCH   9  10
ATOM     10  O   UNL     1       6.380  -0.206   0.000  0.00  0.00    +0.000 OA
BRANCH  10  13
ATOM     11  O   UNL     1       4.951  -1.031   0.000  0.00  0.00    +0.000 OA
ATOM     12  O   UNL     1       3.522  -0.206   0.000  0.00  0.00    +0.000 OA
ATOM     13  C   UNL     1       5.665   0.206   0.000  0.00  0.00    +0.000 A 
ATOM     14  C   UNL     1       4.951  -0.206   0.000  0.00  0.00    +0.000 A 
ATOM     15  C   UNL     1       5.665   1.031   0.000  0.00  0.00    +0.000 A 
ATOM     16  C   UNL     1       4.236   0.206   0.000  0.00  0.00    +0.000 A 
ATOM     17  C   UNL     1       4.951   1.444   0.000  0.00  0.00    +0.000 A 
ATOM     18  C   UNL     1       4.236   1.031   0.000  0.00  0.00    +0.000 A 
BRANCH  18  20
ATOM     19  O   UNL     1       2.808   1.031   0.000  0.00  0.00    +0.000 OA
ATOM     20  C   UNL     1       3.522   1.444   0.000  0.00  0.00    +0.000 C 
BRANCH  20  21
ATOM     21  C   UNL     1       3.522   2.269   0.000  0.00  0.00    +0.000 C 
ATOM     22  C   UNL     1       2.808   2.681   0.000  0.00  0.00    +0.000 C 
BRANCH  22  25
ATOM     23  O   UNL     1       4.236   5.156   0.000  0.00  0.00    +0.000 OA
ATOM     24  O   UNL     1       2.808   5.981   0.000  0.00  0.00    +0.000 OA
ATOM     25  C   UNL     1       2.808   3.506   0.000  0.00  0.00    +0.000 A 
ATOM     26  C   UNL     1       3.522   3.919   0.000  0.00  0.00    +0.000 A 
ATOM     27  C   UNL     1       2.093   3.919   0.000  0.00  0.00    +0.000 A 
ATOM     28  C   UNL     1       3.522   4.744   0.000  0.00  0.00    +0.000 A 
ATOM     29  C   UNL     1       2.093   4.744   0.000  0.00  0.00    +0.000 A 
ATOM     30  C   UNL     1       2.808   5.156   0.000  0.00  0.00    +0.000 A 
ENDBRANCH  22  25
ENDBRANCH  20  21
ENDBRANCH  18  20
ENDBRANCH  10  13
ENDBRANCH   9  10
BRANCH   5  31
ATOM     31  C   UNL     1       4.951  -2.681   0.000  0.00  0.00    +0.000 C 
BRANCH  31  32
ATOM     32  O   UNL     1       4.951  -3.506   0.000  0.00  0.00    +0.000 OA
BRANCH  32  39
ATOM     33  O   UNL     1       3.522  -3.506   0.000  0.00  0.00    +0.000 OA
ATOM     34  O   UNL     1       4.951  -5.156   0.000  0.00  0.00    +0.000 OA
ATOM     35  O   UNL     1       3.522  -5.981   0.000  0.00  0.00    +0.000 OA
ATOM     36  O   UNL     1       2.093  -5.156   0.000  0.00  0.00    +0.000 OA
ATOM     37  C   UNL     1       4.236  -4.744   0.000  0.00  0.00    +0.000 C 
ATOM     38  C   UNL     1       3.522  -5.156   0.000  0.00  0.00    +0.000 C 
ATOM     39  C   UNL     1       4.236  -3.919   0.000  0.00  0.00    +0.000 C 
ATOM     40  C   UNL     1       2.808  -4.744   0.000  0.00  0.00    +0.000 C 
ATOM     41  C   UNL     1       2.808  -3.919   0.000  0.00  0.00    +0.000 C 
BRANCH  41  43
ATOM     42  O   UNL     1       2.093  -2.681   0.000  0.00  0.00    +0.000 OA
ATOM     43  C   UNL     1       2.093  -3.506   0.000  0.00  0.00    +0.000 C 
ENDBRANCH  41  43
ENDBRANCH  32  39
ENDBRANCH  31  32
ENDBRANCH   5  31
TORSDOF 9
