REMARK  Name = 44257720
REMARK  6 active torsions:
REMARK  status: ('A' for Active; 'I' for Inactive)
REMARK    1  A    between atoms: O_2  and  C_21
REMARK    2  A    between atoms: O_2  and  C_22
REMARK    3  A    between atoms: C_16  and  C_21
REMARK    4  A    between atoms: C_20  and  C_27
REMARK    5  A    between atoms: C_26  and  C_28
REMARK    6  A    between atoms: C_35  and  C_37
REMARK                            x       y       z     vdW  Elec       q    Type
REMARK                         _______ _______ _______ _____ _____    ______ ____
ROOT
ATOM      1  O   UNL     1       5.665   0.412   0.000  0.00  0.00    +0.000 OA
ATOM      2  O   UNL     1       6.380  -1.650   0.000  0.00  0.00    +0.000 OA
ATOM      3  O   UNL     1       7.809  -0.825   0.000  0.00  0.00    +0.000 OA
ATOM      4  O   UNL     1       7.809   0.825   0.000  0.00  0.00    +0.000 OA
ATOM      5  C   UNL     1       5.665  -0.412   0.000  0.00  0.00    +0.000 C 
ATOM      6  C   UNL     1       6.380  -0.825   0.000  0.00  0.00    +0.000 C 
ATOM      7  C   UNL     1       7.094  -0.412   0.000  0.00  0.00    +0.000 C 
ATOM      8  C   UNL     1       7.094   0.412   0.000  0.00  0.00    +0.000 C 
ATOM      9  C   UNL     1       6.380   0.825   0.000  0.00  0.00    +0.000 C 
ENDROOT
BRANCH   9  14
ATOM     10  O   UNL     1       7.832   1.621   0.000  0.00  0.00    +0.000 OA
ATOM     11  O   UNL     1       4.951   1.650   0.000  0.00  0.00    +0.000 OA
ATOM     12  O   UNL     1       6.380   4.125   0.000  0.00  0.00    +0.000 OA
ATOM     13  O   UNL     1       7.822   4.154   0.000  0.00  0.00    +0.000 OA
ATOM     14  C   UNL     1       6.380   1.650   0.000  0.00  0.00    +0.000 A 
ATOM     15  C   UNL     1       7.094   2.062   0.000  0.00  0.00    +0.000 A 
ATOM     16  C   UNL     1       5.665   2.062   0.000  0.00  0.00    +0.000 A 
ATOM     17  C   UNL     1       7.094   2.888   0.000  0.00  0.00    +0.000 A 
ATOM     18  C   UNL     1       5.665   2.888   0.000  0.00  0.00    +0.000 A 
ATOM     19  C   UNL     1       6.380   3.300   0.000  0.00  0.00    +0.000 A 
ATOM     20  C   UNL     1       7.832   3.329   0.000  0.00  0.00    +0.000 A 
ATOM     21  C   UNL     1       8.579   2.045   0.000  0.00  0.00    +0.000 A 
ATOM     22  C   UNL     1       8.579   2.905   0.000  0.00  0.00    +0.000 A 
BRANCH  21  24
ATOM     23  O   UNL     1      11.431   0.384   0.000  0.00  0.00    +0.000 OA
ATOM     24  C   UNL     1       9.292   1.630   0.000  0.00  0.00    +0.000 A 
ATOM     25  C   UNL     1      10.008   2.040   0.000  0.00  0.00    +0.000 A 
ATOM     26  C   UNL     1       9.289   0.805   0.000  0.00  0.00    +0.000 A 
ATOM     27  C   UNL     1      10.721   1.625   0.000  0.00  0.00    +0.000 A 
ATOM     28  C   UNL     1      10.002   0.390   0.000  0.00  0.00    +0.000 A 
ATOM     29  C   UNL     1      10.718   0.800   0.000  0.00  0.00    +0.000 A 
ENDBRANCH  21  24
ENDBRANCH   9  14
BRANCH   5  30
ATOM     30  C   UNL     1       4.951  -0.825   0.000  0.00  0.00    +0.000 C 
BRANCH  30  31
ATOM     31  O   UNL     1       4.951  -1.650   0.000  0.00  0.00    +0.000 OA
BRANCH  31  36
ATOM     32  O   UNL     1       3.522  -1.650   0.000  0.00  0.00    +0.000 OA
ATOM     33  O   UNL     1       4.951  -3.300   0.000  0.00  0.00    +0.000 OA
ATOM     34  O   UNL     1       3.522  -4.125   0.000  0.00  0.00    +0.000 OA
ATOM     35  O   UNL     1       2.093  -3.300   0.000  0.00  0.00    +0.000 OA
ATOM     36  C   UNL     1       4.236  -2.062   0.000  0.00  0.00    +0.000 C 
ATOM     37  C   UNL     1       4.236  -2.888   0.000  0.00  0.00    +0.000 C 
ATOM     38  C   UNL     1       3.522  -3.300   0.000  0.00  0.00    +0.000 C 
ATOM     39  C   UNL     1       2.808  -2.888   0.000  0.00  0.00    +0.000 C 
ATOM     40  C   UNL     1       2.808  -2.062   0.000  0.00  0.00    +0.000 C 
BRANCH  40  42
ATOM     41  O   UNL     1       2.093  -0.825   0.000  0.00  0.00    +0.000 OA
ATOM     42  C   UNL     1       2.093  -1.650   0.000  0.00  0.00    +0.000 C 
ENDBRANCH  40  42
ENDBRANCH  31  36
ENDBRANCH  30  31
ENDBRANCH   5  30
TORSDOF 6
