REMARK  Name = 44257951
REMARK  8 active torsions:
REMARK  status: ('A' for Active; 'I' for Inactive)
REMARK    1  A    between atoms: O_2  and  C_15
REMARK    2  A    between atoms: O_2  and  C_27
REMARK    3  A    between atoms: O_13  and  C_42
REMARK    4  A    between atoms: C_17  and  C_20
REMARK    5  A    between atoms: C_19  and  C_21
REMARK    6  A    between atoms: C_27  and  C_31
REMARK    7  A    between atoms: C_29  and  C_32
REMARK    8  A    between atoms: C_33  and  C_36
REMARK                            x       y       z     vdW  Elec       q    Type
REMARK                         _______ _______ _______ _____ _____    ______ ____
ROOT
ATOM      1  O   UNL     1       9.238  -0.825   0.000  0.00  0.00    +0.000 OA
ATOM      2  O   UNL     1       7.094  -2.062   0.000  0.00  0.00    +0.000 OA
ATOM      3  O   UNL     1       8.523  -2.888   0.000  0.00  0.00    +0.000 OA
ATOM      4  C   UNL     1       7.809  -0.825   0.000  0.00  0.00    +0.000 C 
ATOM      5  C   UNL     1       7.809  -1.650   0.000  0.00  0.00    +0.000 C 
ATOM      6  C   UNL     1       8.523  -0.412   0.000  0.00  0.00    +0.000 C 
ATOM      7  C   UNL     1       8.523  -2.062   0.000  0.00  0.00    +0.000 C 
ATOM      8  C   UNL     1       9.238  -1.650   0.000  0.00  0.00    +0.000 C 
ENDROOT
BRANCH   6  13
ATOM      9  O   UNL     1       9.975   0.384   0.000  0.00  0.00    +0.000 OA
ATOM     10  O   UNL     1       7.094   0.412   0.000  0.00  0.00    +0.000 OA
ATOM     11  O   UNL     1       8.523   2.888   0.000  0.00  0.00    +0.000 OA
ATOM     12  O   UNL     1       9.966   2.916   0.000  0.00  0.00    +0.000 OA
ATOM     13  C   UNL     1       8.523   0.412   0.000  0.00  0.00    +0.000 A 
ATOM     14  C   UNL     1       9.238   0.825   0.000  0.00  0.00    +0.000 A 
ATOM     15  C   UNL     1       7.809   0.825   0.000  0.00  0.00    +0.000 A 
ATOM     16  C   UNL     1       9.238   1.650   0.000  0.00  0.00    +0.000 A 
ATOM     17  C   UNL     1       7.809   1.650   0.000  0.00  0.00    +0.000 A 
ATOM     18  C   UNL     1       8.523   2.062   0.000  0.00  0.00    +0.000 A 
ATOM     19  C   UNL     1       9.975   2.091   0.000  0.00  0.00    +0.000 A 
ATOM     20  C   UNL     1      10.723   0.808   0.000  0.00  0.00    +0.000 A 
ATOM     21  C   UNL     1      10.723   1.667   0.000  0.00  0.00    +0.000 A 
BRANCH  20  24
ATOM     22  O   UNL     1      12.142  -1.673   0.000  0.00  0.00    +0.000 OA
ATOM     23  O   UNL     1      13.574  -0.853   0.000  0.00  0.00    +0.000 OA
ATOM     24  C   UNL     1      11.436   0.393   0.000  0.00  0.00    +0.000 A 
ATOM     25  C   UNL     1      11.432  -0.432   0.000  0.00  0.00    +0.000 A 
ATOM     26  C   UNL     1      12.152   0.802   0.000  0.00  0.00    +0.000 A 
ATOM     27  C   UNL     1      12.145  -0.848   0.000  0.00  0.00    +0.000 A 
ATOM     28  C   UNL     1      12.864   0.387   0.000  0.00  0.00    +0.000 A 
ATOM     29  C   UNL     1      12.861  -0.438   0.000  0.00  0.00    +0.000 A 
ENDBRANCH  20  24
ENDBRANCH   6  13
BRANCH   8  31
ATOM     30  O   UNL     1       9.952  -2.888   0.000  0.00  0.00    +0.000 OA
ATOM     31  C   UNL     1       9.952  -2.062   0.000  0.00  0.00    +0.000 C 
ENDBRANCH   8  31
BRANCH   4  32
ATOM     32  O   UNL     1       7.094  -0.412   0.000  0.00  0.00    +0.000 OA
BRANCH  32  34
ATOM     33  O   UNL     1       6.380  -1.650   0.000  0.00  0.00    +0.000 OA
ATOM     34  C   UNL     1       6.380  -0.825   0.000  0.00  0.00    +0.000 C 
BRANCH  34  35
ATOM     35  C   UNL     1       5.665  -0.412   0.000  0.00  0.00    +0.000 C 
ATOM     36  C   UNL     1       4.951  -0.825   0.000  0.00  0.00    +0.000 C 
BRANCH  36  38
ATOM     37  O   UNL     1       2.093   0.825   0.000  0.00  0.00    +0.000 OA
ATOM     38  C   UNL     1       4.236  -0.412   0.000  0.00  0.00    +0.000 A 
ATOM     39  C   UNL     1       4.236   0.412   0.000  0.00  0.00    +0.000 A 
ATOM     40  C   UNL     1       3.522  -0.825   0.000  0.00  0.00    +0.000 A 
ATOM     41  C   UNL     1       3.522   0.825   0.000  0.00  0.00    +0.000 A 
ATOM     42  C   UNL     1       2.808  -0.412   0.000  0.00  0.00    +0.000 A 
ATOM     43  C   UNL     1       2.808   0.412   0.000  0.00  0.00    +0.000 A 
BRANCH  41  44
ATOM     44  O   UNL     1       3.522   1.650   0.000  0.00  0.00    +0.000 OA
ATOM     45  C   UNL     1       2.808   2.062   0.000  0.00  0.00    +0.000 C 
ENDBRANCH  41  44
ENDBRANCH  36  38
ENDBRANCH  34  35
ENDBRANCH  32  34
ENDBRANCH   4  32
TORSDOF 8
