REMARK  Name = 44257780
REMARK  5 active torsions:
REMARK  status: ('A' for Active; 'I' for Inactive)
REMARK    1  A    between atoms: O_5  and  C_23
REMARK    2  A    between atoms: O_5  and  C_32
REMARK    3  A    between atoms: C_15  and  C_24
REMARK    4  A    between atoms: C_21  and  C_26
REMARK    5  A    between atoms: C_34  and  C_35
REMARK                            x       y       z     vdW  Elec       q    Type
REMARK                         _______ _______ _______ _____ _____    ______ ____
ROOT
ATOM      1  O   UNL     1       6.408   0.200   0.000  0.00  0.00    +0.000 OA
ATOM      2  O   UNL     1       4.975   2.715   0.000  0.00  0.00    +0.000 OA
ATOM      3  O   UNL     1       7.833   2.704   0.000  0.00  0.00    +0.000 OA
ATOM      4  O   UNL     1       4.225   1.483   0.000  0.00  0.00    +0.000 OA
ATOM      5  C   UNL     1       6.404   2.709   0.000  0.00  0.00    +0.000 A 
ATOM      6  C   UNL     1       5.688   2.300   0.000  0.00  0.00    +0.000 A 
ATOM      7  C   UNL     1       7.117   2.294   0.000  0.00  0.00    +0.000 A 
ATOM      8  C   UNL     1       5.685   1.474   0.000  0.00  0.00    +0.000 A 
ATOM      9  C   UNL     1       6.398   1.059   0.000  0.00  0.00    +0.000 A 
ATOM     10  C   UNL     1       7.114   1.469   0.000  0.00  0.00    +0.000 A 
ATOM     11  C   UNL     1       4.933   1.059   0.000  0.00  0.00    +0.000 A 
ATOM     12  C   UNL     1       5.665  -0.233   0.000  0.00  0.00    +0.000 A 
ATOM     13  C   UNL     1       4.923   0.200   0.000  0.00  0.00    +0.000 A 
ENDROOT
BRANCH   5  18
ATOM     14  O   UNL     1       5.695   3.950   0.000  0.00  0.00    +0.000 OA
ATOM     15  O   UNL     1       7.843   5.179   0.000  0.00  0.00    +0.000 OA
ATOM     16  O   UNL     1       6.417   6.009   0.000  0.00  0.00    +0.000 OA
ATOM     17  C   UNL     1       7.127   4.769   0.000  0.00  0.00    +0.000 C 
ATOM     18  C   UNL     1       6.407   3.534   0.000  0.00  0.00    +0.000 C 
ATOM     19  C   UNL     1       6.414   5.184   0.000  0.00  0.00    +0.000 C 
ATOM     20  C   UNL     1       7.123   3.944   0.000  0.00  0.00    +0.000 C 
ATOM     21  C   UNL     1       5.698   4.774   0.000  0.00  0.00    +0.000 C 
ATOM     22  C   UNL     1       4.985   5.190   0.000  0.00  0.00    +0.000 C 
ENDBRANCH   5  18
BRANCH  12  24
ATOM     23  C   UNL     1       5.665  -2.708   0.000  0.00  0.00    +0.000 A 
ATOM     24  C   UNL     1       5.665  -1.058   0.000  0.00  0.00    +0.000 A 
ATOM     25  C   UNL     1       6.380  -2.295   0.000  0.00  0.00    +0.000 A 
ATOM     26  C   UNL     1       4.951  -2.295   0.000  0.00  0.00    +0.000 A 
ATOM     27  C   UNL     1       6.380  -1.470   0.000  0.00  0.00    +0.000 A 
ATOM     28  C   UNL     1       4.951  -1.470   0.000  0.00  0.00    +0.000 A 
BRANCH  23  29
ATOM     29  O   UNL     1       5.665  -3.533   0.000  0.00  0.00    +0.000 OA
BRANCH  29  38
ATOM     30  O   UNL     1       4.236  -3.533   0.000  0.00  0.00    +0.000 OA
ATOM     31  O   UNL     1       2.808  -5.183   0.000  0.00  0.00    +0.000 OA
ATOM     32  O   UNL     1       4.236  -6.008   0.000  0.00  0.00    +0.000 OA
ATOM     33  O   UNL     1       5.665  -5.183   0.000  0.00  0.00    +0.000 OA
ATOM     34  C   UNL     1       3.522  -4.770   0.000  0.00  0.00    +0.000 C 
ATOM     35  C   UNL     1       4.236  -5.183   0.000  0.00  0.00    +0.000 C 
ATOM     36  C   UNL     1       3.522  -3.945   0.000  0.00  0.00    +0.000 C 
ATOM     37  C   UNL     1       4.951  -4.770   0.000  0.00  0.00    +0.000 C 
ATOM     38  C   UNL     1       4.951  -3.945   0.000  0.00  0.00    +0.000 C 
BRANCH  36  40
ATOM     39  O   UNL     1       2.093  -3.945   0.000  0.00  0.00    +0.000 OA
ATOM     40  C   UNL     1       2.808  -3.533   0.000  0.00  0.00    +0.000 C 
ENDBRANCH  36  40
ENDBRANCH  29  38
ENDBRANCH  23  29
ENDBRANCH  12  24
TORSDOF 5
