REMARK  Name = 44258370
REMARK  7 active torsions:
REMARK  status: ('A' for Active; 'I' for Inactive)
REMARK    1  A    between atoms: O_1  and  C_17
REMARK    2  A    between atoms: O_1  and  C_22
REMARK    3  A    between atoms: O_10  and  C_31
REMARK    4  A    between atoms: C_19  and  C_27
REMARK    5  A    between atoms: C_21  and  C_28
REMARK    6  A    between atoms: C_26  and  C_29
REMARK    7  A    between atoms: C_37  and  C_39
REMARK                            x       y       z     vdW  Elec       q    Type
REMARK                         _______ _______ _______ _____ _____    ______ ____
ROOT
ATOM      1  O   UNL     1       5.937   1.316   0.000  0.00  0.00    +0.000 OA
ATOM      2  O   UNL     1       3.793   0.078   0.000  0.00  0.00    +0.000 OA
ATOM      3  O   UNL     1       3.793   1.728   0.000  0.00  0.00    +0.000 OA
ATOM      4  C   UNL     1       5.222   0.078   0.000  0.00  0.00    +0.000 C 
ATOM      5  C   UNL     1       4.508   0.491   0.000  0.00  0.00    +0.000 C 
ATOM      6  C   UNL     1       5.937   0.491   0.000  0.00  0.00    +0.000 C 
ATOM      7  C   UNL     1       4.508   1.316   0.000  0.00  0.00    +0.000 C 
ATOM      8  C   UNL     1       5.222   1.728   0.000  0.00  0.00    +0.000 C 
ENDROOT
BRANCH   6  12
ATOM      9  O   UNL     1       7.366   1.316   0.000  0.00  0.00    +0.000 OA
ATOM     10  O   UNL     1       8.818  -1.188   0.000  0.00  0.00    +0.000 OA
ATOM     11  O   UNL     1       8.808   1.344   0.000  0.00  0.00    +0.000 OA
ATOM     12  C   UNL     1       6.651   0.078   0.000  0.00  0.00    +0.000 A 
ATOM     13  C   UNL     1       7.366   0.491   0.000  0.00  0.00    +0.000 A 
ATOM     14  C   UNL     1       6.651  -0.747   0.000  0.00  0.00    +0.000 A 
ATOM     15  C   UNL     1       8.080   0.078   0.000  0.00  0.00    +0.000 A 
ATOM     16  C   UNL     1       7.366  -1.159   0.000  0.00  0.00    +0.000 A 
ATOM     17  C   UNL     1       8.080  -0.747   0.000  0.00  0.00    +0.000 A 
ATOM     18  C   UNL     1       8.818   0.519   0.000  0.00  0.00    +0.000 A 
ATOM     19  C   UNL     1       9.565   0.096   0.000  0.00  0.00    +0.000 A 
ATOM     20  C   UNL     1       9.565  -0.764   0.000  0.00  0.00    +0.000 A 
BRANCH  20  23
ATOM     21  O   UNL     1      12.423  -0.775   0.000  0.00  0.00    +0.000 OA
ATOM     22  O   UNL     1      12.417  -2.425   0.000  0.00  0.00    +0.000 OA
ATOM     23  C   UNL     1      10.278  -1.179   0.000  0.00  0.00    +0.000 A 
ATOM     24  C   UNL     1      10.994  -0.769   0.000  0.00  0.00    +0.000 A 
ATOM     25  C   UNL     1      10.275  -2.004   0.000  0.00  0.00    +0.000 A 
ATOM     26  C   UNL     1      11.707  -1.185   0.000  0.00  0.00    +0.000 A 
ATOM     27  C   UNL     1      10.988  -2.419   0.000  0.00  0.00    +0.000 A 
ATOM     28  C   UNL     1      11.704  -2.010   0.000  0.00  0.00    +0.000 A 
ENDBRANCH  20  23
BRANCH  14  29
ATOM     29  O   UNL     1       5.937  -1.159   0.000  0.00  0.00    +0.000 OA
ATOM     30  C   UNL     1       5.937  -1.984   0.000  0.00  0.00    +0.000 C 
ENDBRANCH  14  29
ENDBRANCH   6  12
BRANCH   8  32
ATOM     31  O   UNL     1       4.508   2.966   0.000  0.00  0.00    +0.000 OA
ATOM     32  C   UNL     1       5.222   2.553   0.000  0.00  0.00    +0.000 C 
ENDBRANCH   8  32
BRANCH   4  33
ATOM     33  O   UNL     1       5.222  -0.747   0.000  0.00  0.00    +0.000 OA
BRANCH  33  38
ATOM     34  O   UNL     1       3.793  -0.747   0.000  0.00  0.00    +0.000 OA
ATOM     35  O   UNL     1       5.222  -2.397   0.000  0.00  0.00    +0.000 OA
ATOM     36  O   UNL     1       3.793  -3.222   0.000  0.00  0.00    +0.000 OA
ATOM     37  O   UNL     1       2.365  -2.397   0.000  0.00  0.00    +0.000 OA
ATOM     38  C   UNL     1       4.508  -1.159   0.000  0.00  0.00    +0.000 C 
ATOM     39  C   UNL     1       4.508  -1.984   0.000  0.00  0.00    +0.000 C 
ATOM     40  C   UNL     1       3.793  -2.397   0.000  0.00  0.00    +0.000 C 
ATOM     41  C   UNL     1       3.079  -1.984   0.000  0.00  0.00    +0.000 C 
ATOM     42  C   UNL     1       3.079  -1.159   0.000  0.00  0.00    +0.000 C 
BRANCH  42  44
ATOM     43  O   UNL     1       1.650  -1.159   0.000  0.00  0.00    +0.000 OA
ATOM     44  C   UNL     1       2.365  -0.747   0.000  0.00  0.00    +0.000 C 
ENDBRANCH  42  44
ENDBRANCH  33  38
ENDBRANCH   4  33
TORSDOF 7
