REMARK  Name = 131752732
REMARK  9 active torsions:
REMARK  status: ('A' for Active; 'I' for Inactive)
REMARK    1  A    between atoms: O_1  and  C_21
REMARK    2  A    between atoms: O_1  and  C_26
REMARK    3  A    between atoms: O_3  and  C_24
REMARK    4  A    between atoms: O_3  and  C_34
REMARK    5  A    between atoms: O_13  and  C_36
REMARK    6  A    between atoms: O_13  and  C_39
REMARK    7  A    between atoms: O_19  and  C_51
REMARK    8  A    between atoms: C_29  and  C_34
REMARK    9  A    between atoms: C_40  and  C_43
REMARK                            x       y       z     vdW  Elec       q    Type
REMARK                         _______ _______ _______ _____ _____    ______ ____
ROOT
ATOM      1  O   UNL     1       7.094   0.953   0.000  0.00  0.00    +0.000 OA
ATOM      2  O   UNL     1       7.809  -1.110   0.000  0.00  0.00    +0.000 OA
ATOM      3  O   UNL     1       9.238  -0.285   0.000  0.00  0.00    +0.000 OA
ATOM      4  O   UNL     1       9.238   1.365   0.000  0.00  0.00    +0.000 OA
ATOM      5  C   UNL     1       7.094   0.128   0.000  0.00  0.00    +0.000 C 
ATOM      6  C   UNL     1       7.809  -0.285   0.000  0.00  0.00    +0.000 C 
ATOM      7  C   UNL     1       8.523   0.128   0.000  0.00  0.00    +0.000 C 
ATOM      8  C   UNL     1       8.523   0.953   0.000  0.00  0.00    +0.000 C 
ATOM      9  C   UNL     1       7.809   1.365   0.000  0.00  0.00    +0.000 C 
ENDROOT
BRANCH   9  10
ATOM     10  O   UNL     1       7.809   2.190   0.000  0.00  0.00    +0.000 OA
BRANCH  10  15
ATOM     11  O   UNL     1       6.380   3.840   0.000  0.00  0.00    +0.000 OA
ATOM     12  O   UNL     1       6.380   1.365   0.000  0.00  0.00    +0.000 OA
ATOM     13  O   UNL     1       4.937   1.337   0.000  0.00  0.00    +0.000 OA
ATOM     14  O   UNL     1       3.467   3.860   0.000  0.00  0.00    +0.000 OA
ATOM     15  C   UNL     1       7.094   2.603   0.000  0.00  0.00    +0.000 A 
ATOM     16  C   UNL     1       7.094   3.428   0.000  0.00  0.00    +0.000 A 
ATOM     17  C   UNL     1       6.380   2.190   0.000  0.00  0.00    +0.000 A 
ATOM     18  C   UNL     1       5.665   2.603   0.000  0.00  0.00    +0.000 A 
ATOM     19  C   UNL     1       5.665   3.428   0.000  0.00  0.00    +0.000 A 
ATOM     20  C   UNL     1       4.928   2.162   0.000  0.00  0.00    +0.000 A 
ATOM     21  C   UNL     1       4.928   3.869   0.000  0.00  0.00    +0.000 A 
ATOM     22  C   UNL     1       4.180   2.586   0.000  0.00  0.00    +0.000 A 
ATOM     23  C   UNL     1       4.180   3.445   0.000  0.00  0.00    +0.000 A 
BRANCH  16  25
ATOM     24  O   UNL     1       9.952   5.078   0.000  0.00  0.00    +0.000 OA
ATOM     25  C   UNL     1       7.809   3.840   0.000  0.00  0.00    +0.000 A 
ATOM     26  C   UNL     1       7.809   4.665   0.000  0.00  0.00    +0.000 A 
ATOM     27  C   UNL     1       8.523   3.428   0.000  0.00  0.00    +0.000 A 
ATOM     28  C   UNL     1       8.523   5.078   0.000  0.00  0.00    +0.000 A 
ATOM     29  C   UNL     1       9.238   3.840   0.000  0.00  0.00    +0.000 A 
ATOM     30  C   UNL     1       9.238   4.665   0.000  0.00  0.00    +0.000 A 
BRANCH  28  31
ATOM     31  O   UNL     1       8.523   5.903   0.000  0.00  0.00    +0.000 OA
ATOM     32  C   UNL     1       7.809   6.315   0.000  0.00  0.00    +0.000 C 
ENDBRANCH  28  31
ENDBRANCH  16  25
ENDBRANCH  10  15
ENDBRANCH   9  10
BRANCH   5  33
ATOM     33  C   UNL     1       6.380  -0.285   0.000  0.00  0.00    +0.000 C 
BRANCH  33  34
ATOM     34  O   UNL     1       6.380  -1.110   0.000  0.00  0.00    +0.000 OA
BRANCH  34  41
ATOM     35  O   UNL     1       4.951  -1.110   0.000  0.00  0.00    +0.000 OA
ATOM     36  O   UNL     1       6.380  -2.760   0.000  0.00  0.00    +0.000 OA
ATOM     37  O   UNL     1       3.522  -2.760   0.000  0.00  0.00    +0.000 OA
ATOM     38  C   UNL     1       4.951  -2.760   0.000  0.00  0.00    +0.000 C 
ATOM     39  C   UNL     1       5.665  -2.347   0.000  0.00  0.00    +0.000 C 
ATOM     40  C   UNL     1       4.236  -2.347   0.000  0.00  0.00    +0.000 C 
ATOM     41  C   UNL     1       5.665  -1.522   0.000  0.00  0.00    +0.000 C 
ATOM     42  C   UNL     1       4.236  -1.522   0.000  0.00  0.00    +0.000 C 
ATOM     43  C   UNL     1       3.522  -1.110   0.000  0.00  0.00    +0.000 C 
BRANCH  38  44
ATOM     44  O   UNL     1       4.951  -3.585   0.000  0.00  0.00    +0.000 OA
BRANCH  44  49
ATOM     45  O   UNL     1       3.522  -3.585   0.000  0.00  0.00    +0.000 OA
ATOM     46  O   UNL     1       4.951  -5.235   0.000  0.00  0.00    +0.000 OA
ATOM     47  O   UNL     1       3.522  -6.060   0.000  0.00  0.00    +0.000 OA
ATOM     48  O   UNL     1       2.093  -5.235   0.000  0.00  0.00    +0.000 OA
ATOM     49  C   UNL     1       4.236  -3.997   0.000  0.00  0.00    +0.000 C 
ATOM     50  C   UNL     1       4.236  -4.822   0.000  0.00  0.00    +0.000 C 
ATOM     51  C   UNL     1       3.522  -5.235   0.000  0.00  0.00    +0.000 C 
ATOM     52  C   UNL     1       2.808  -4.822   0.000  0.00  0.00    +0.000 C 
ATOM     53  C   UNL     1       2.808  -3.997   0.000  0.00  0.00    +0.000 C 
ATOM     54  C   UNL     1       2.093  -3.585   0.000  0.00  0.00    +0.000 C 
ENDBRANCH  44  49
ENDBRANCH  38  44
ENDBRANCH  34  41
ENDBRANCH  33  34
ENDBRANCH   5  33
TORSDOF 9
