REMARK  Name = 42607576
REMARK  12 active torsions:
REMARK  status: ('A' for Active; 'I' for Inactive)
REMARK    1  A    between atoms: O_2  and  C_18
REMARK    2  A    between atoms: O_2  and  C_23
REMARK    3  A    between atoms: O_5  and  C_20
REMARK    4  A    between atoms: O_5  and  C_22
REMARK    5  A    between atoms: O_6  and  C_21
REMARK    6  A    between atoms: O_6  and  C_26
REMARK    7  A    between atoms: C_19  and  C_21
REMARK    8  A    between atoms: C_23  and  C_27
REMARK    9  A    between atoms: C_30  and  C_33
REMARK   10  A    between atoms: C_32  and  C_34
REMARK   11  A    between atoms: C_33  and  C_35
REMARK   12  A    between atoms: C_38  and  C_42
REMARK                            x       y       z     vdW  Elec       q    Type
REMARK                         _______ _______ _______ _____ _____    ______ ____
ROOT
ATOM      1  O   UNL     1       5.222  -0.128   0.000  0.00  0.00    +0.000 OA
ATOM      2  O   UNL     1       5.222  -2.603   0.000  0.00  0.00    +0.000 OA
ATOM      3  O   UNL     1       3.793  -1.778   0.000  0.00  0.00    +0.000 OA
ATOM      4  C   UNL     1       5.222  -1.778   0.000  0.00  0.00    +0.000 C 
ATOM      5  C   UNL     1       4.508  -1.365   0.000  0.00  0.00    +0.000 C 
ATOM      6  C   UNL     1       5.937  -1.365   0.000  0.00  0.00    +0.000 C 
ATOM      7  C   UNL     1       4.508  -0.540   0.000  0.00  0.00    +0.000 C 
ATOM      8  C   UNL     1       5.937  -0.540   0.000  0.00  0.00    +0.000 C 
ENDROOT
BRANCH   6   9
ATOM      9  O   UNL     1       6.651  -1.778   0.000  0.00  0.00    +0.000 OA
BRANCH   9  11
ATOM     10  O   UNL     1       5.937  -3.015   0.000  0.00  0.00    +0.000 OA
ATOM     11  C   UNL     1       6.651  -2.603   0.000  0.00  0.00    +0.000 C 
BRANCH  11  12
ATOM     12  C   UNL     1       7.366  -3.015   0.000  0.00  0.00    +0.000 C 
ATOM     13  C   UNL     1       7.366  -3.840   0.000  0.00  0.00    +0.000 C 
BRANCH  13  16
ATOM     14  O   UNL     1       8.795  -6.315   0.000  0.00  0.00    +0.000 OA
ATOM     15  O   UNL     1      10.224  -5.490   0.000  0.00  0.00    +0.000 OA
ATOM     16  C   UNL     1       8.080  -4.253   0.000  0.00  0.00    +0.000 A 
ATOM     17  C   UNL     1       8.080  -5.078   0.000  0.00  0.00    +0.000 A 
ATOM     18  C   UNL     1       8.795  -3.840   0.000  0.00  0.00    +0.000 A 
ATOM     19  C   UNL     1       8.795  -5.490   0.000  0.00  0.00    +0.000 A 
ATOM     20  C   UNL     1       9.509  -4.253   0.000  0.00  0.00    +0.000 A 
ATOM     21  C   UNL     1       9.509  -5.078   0.000  0.00  0.00    +0.000 A 
ENDBRANCH  13  16
ENDBRANCH  11  12
ENDBRANCH   9  11
ENDBRANCH   6   9
BRANCH   8  22
ATOM     22  O   UNL     1       6.651  -0.128   0.000  0.00  0.00    +0.000 OA
BRANCH  22  25
ATOM     23  O   UNL     1       5.222   0.697   0.000  0.00  0.00    +0.000 OA
ATOM     24  O   UNL     1       5.222   2.347   0.000  0.00  0.00    +0.000 OA
ATOM     25  C   UNL     1       6.651   0.697   0.000  0.00  0.00    +0.000 A 
ATOM     26  C   UNL     1       5.937   1.110   0.000  0.00  0.00    +0.000 A 
ATOM     27  C   UNL     1       7.366   1.110   0.000  0.00  0.00    +0.000 A 
ATOM     28  C   UNL     1       5.937   1.935   0.000  0.00  0.00    +0.000 A 
ATOM     29  C   UNL     1       7.366   1.935   0.000  0.00  0.00    +0.000 A 
ATOM     30  C   UNL     1       6.651   2.347   0.000  0.00  0.00    +0.000 A 
BRANCH  30  32
ATOM     31  O   UNL     1       5.937   3.585   0.000  0.00  0.00    +0.000 OA
ATOM     32  C   UNL     1       6.651   3.172   0.000  0.00  0.00    +0.000 C 
BRANCH  32  33
ATOM     33  C   UNL     1       7.366   3.585   0.000  0.00  0.00    +0.000 C 
ATOM     34  C   UNL     1       7.366   4.410   0.000  0.00  0.00    +0.000 C 
BRANCH  34  37
ATOM     35  O   UNL     1      10.224   4.410   0.000  0.00  0.00    +0.000 OA
ATOM     36  O   UNL     1      10.224   6.060   0.000  0.00  0.00    +0.000 OA
ATOM     37  C   UNL     1       8.080   4.822   0.000  0.00  0.00    +0.000 A 
ATOM     38  C   UNL     1       8.795   4.410   0.000  0.00  0.00    +0.000 A 
ATOM     39  C   UNL     1       8.080   5.647   0.000  0.00  0.00    +0.000 A 
ATOM     40  C   UNL     1       9.509   4.822   0.000  0.00  0.00    +0.000 A 
ATOM     41  C   UNL     1       8.795   6.060   0.000  0.00  0.00    +0.000 A 
ATOM     42  C   UNL     1       9.509   5.647   0.000  0.00  0.00    +0.000 A 
ENDBRANCH  34  37
ENDBRANCH  32  33
ENDBRANCH  30  32
ENDBRANCH  22  25
ENDBRANCH   8  22
BRANCH   7  43
ATOM     43  C   UNL     1       3.793  -0.128   0.000  0.00  0.00    +0.000 C 
BRANCH  43  44
ATOM     44  O   UNL     1       3.079  -0.540   0.000  0.00  0.00    +0.000 OA
BRANCH  44  46
ATOM     45  O   UNL     1       2.364   0.697   0.000  0.00  0.00    +0.000 OA
ATOM     46  C   UNL     1       2.364  -0.128   0.000  0.00  0.00    +0.000 C 
ATOM     47  C   UNL     1       1.650  -0.540   0.000  0.00  0.00    +0.000 C 
ENDBRANCH  44  46
ENDBRANCH  43  44
ENDBRANCH   7  43
TORSDOF 12
