REMARK  Name = 44259127
REMARK  13 active torsions:
REMARK  status: ('A' for Active; 'I' for Inactive)
REMARK    1  A    between atoms: O_1  and  C_22
REMARK    2  A    between atoms: O_1  and  C_24
REMARK    3  A    between atoms: O_5  and  C_28
REMARK    4  A    between atoms: O_5  and  C_34
REMARK    5  A    between atoms: O_10  and  C_33
REMARK    6  A    between atoms: O_10  and  C_37
REMARK    7  A    between atoms: O_19  and  C_55
REMARK    8  A    between atoms: O_20  and  C_56
REMARK    9  A    between atoms: C_29  and  C_32
REMARK   10  A    between atoms: C_31  and  C_33
REMARK   11  A    between atoms: C_35  and  C_39
REMARK   12  A    between atoms: C_37  and  C_42
REMARK   13  A    between atoms: C_50  and  C_52
REMARK                            x       y       z     vdW  Elec       q    Type
REMARK                         _______ _______ _______ _____ _____    ______ ____
ROOT
ATOM      1  O   UNL     1       7.809   0.177   0.000  0.00  0.00    +0.000 OA
ATOM      2  O   UNL     1       7.809  -2.298   0.000  0.00  0.00    +0.000 OA
ATOM      3  O   UNL     1       6.380  -1.473   0.000  0.00  0.00    +0.000 OA
ATOM      4  C   UNL     1       8.523  -1.061   0.000  0.00  0.00    +0.000 C 
ATOM      5  C   UNL     1       7.809  -1.473   0.000  0.00  0.00    +0.000 C 
ATOM      6  C   UNL     1       7.094  -1.061   0.000  0.00  0.00    +0.000 C 
ATOM      7  C   UNL     1       8.523  -0.236   0.000  0.00  0.00    +0.000 C 
ATOM      8  C   UNL     1       7.094  -0.236   0.000  0.00  0.00    +0.000 C 
ENDROOT
BRANCH   8  10
ATOM      9  O   UNL     1       5.665  -0.236   0.000  0.00  0.00    +0.000 OA
ATOM     10  C   UNL     1       6.380   0.177   0.000  0.00  0.00    +0.000 C 
ENDBRANCH   8  10
BRANCH   4  11
ATOM     11  O   UNL     1       9.238  -1.473   0.000  0.00  0.00    +0.000 OA
BRANCH  11  16
ATOM     12  O   UNL     1       8.523  -2.711   0.000  0.00  0.00    +0.000 OA
ATOM     13  O   UNL     1      10.667  -2.298   0.000  0.00  0.00    +0.000 OA
ATOM     14  O   UNL     1      10.667  -3.948   0.000  0.00  0.00    +0.000 OA
ATOM     15  O   UNL     1       9.238  -4.773   0.000  0.00  0.00    +0.000 OA
ATOM     16  C   UNL     1       9.238  -2.298   0.000  0.00  0.00    +0.000 C 
ATOM     17  C   UNL     1       9.952  -2.711   0.000  0.00  0.00    +0.000 C 
ATOM     18  C   UNL     1       9.952  -3.536   0.000  0.00  0.00    +0.000 C 
ATOM     19  C   UNL     1       9.238  -3.948   0.000  0.00  0.00    +0.000 C 
ATOM     20  C   UNL     1       8.523  -3.536   0.000  0.00  0.00    +0.000 C 
BRANCH  20  21
ATOM     21  C   UNL     1       7.809  -3.948   0.000  0.00  0.00    +0.000 C 
BRANCH  21  22
ATOM     22  O   UNL     1       7.094  -3.536   0.000  0.00  0.00    +0.000 OA
BRANCH  22  24
ATOM     23  O   UNL     1       6.380  -4.773   0.000  0.00  0.00    +0.000 OA
ATOM     24  C   UNL     1       6.380  -3.948   0.000  0.00  0.00    +0.000 C 
BRANCH  24  25
ATOM     25  C   UNL     1       5.665  -3.536   0.000  0.00  0.00    +0.000 C 
ATOM     26  C   UNL     1       4.951  -3.948   0.000  0.00  0.00    +0.000 C 
BRANCH  26  28
ATOM     27  O   UNL     1       2.093  -2.298   0.000  0.00  0.00    +0.000 OA
ATOM     28  C   UNL     1       4.236  -3.536   0.000  0.00  0.00    +0.000 A 
ATOM     29  C   UNL     1       4.236  -2.711   0.000  0.00  0.00    +0.000 A 
ATOM     30  C   UNL     1       3.522  -3.948   0.000  0.00  0.00    +0.000 A 
ATOM     31  C   UNL     1       2.808  -3.536   0.000  0.00  0.00    +0.000 A 
ATOM     32  C   UNL     1       3.522  -2.298   0.000  0.00  0.00    +0.000 A 
ATOM     33  C   UNL     1       2.808  -2.711   0.000  0.00  0.00    +0.000 A 
BRANCH  31  34
ATOM     34  O   UNL     1       2.093  -3.948   0.000  0.00  0.00    +0.000 OA
ATOM     35  C   UNL     1       2.093  -4.773   0.000  0.00  0.00    +0.000 C 
ENDBRANCH  31  34
BRANCH  32  36
ATOM     36  O   UNL     1       3.522  -1.473   0.000  0.00  0.00    +0.000 OA
ATOM     37  C   UNL     1       2.808  -1.061   0.000  0.00  0.00    +0.000 C 
ENDBRANCH  32  36
ENDBRANCH  26  28
ENDBRANCH  24  25
ENDBRANCH  22  24
ENDBRANCH  21  22
ENDBRANCH  20  21
ENDBRANCH  11  16
ENDBRANCH   4  11
BRANCH   7  38
ATOM     38  O   UNL     1       9.238   0.177   0.000  0.00  0.00    +0.000 OA
BRANCH  38  43
ATOM     39  O   UNL     1       9.952   2.239   0.000  0.00  0.00    +0.000 OA
ATOM     40  O   UNL     1       7.809   1.002   0.000  0.00  0.00    +0.000 OA
ATOM     41  O   UNL     1       7.063   2.237   0.000  0.00  0.00    +0.000 OA
ATOM     42  O   UNL     1       8.513   4.771   0.000  0.00  0.00    +0.000 OA
ATOM     43  C   UNL     1       9.238   1.002   0.000  0.00  0.00    +0.000 A 
ATOM     44  C   UNL     1       9.952   1.414   0.000  0.00  0.00    +0.000 A 
ATOM     45  C   UNL     1       8.523   1.414   0.000  0.00  0.00    +0.000 A 
ATOM     46  C   UNL     1       8.523   2.239   0.000  0.00  0.00    +0.000 A 
ATOM     47  C   UNL     1       9.238   2.652   0.000  0.00  0.00    +0.000 A 
ATOM     48  C   UNL     1       7.772   2.658   0.000  0.00  0.00    +0.000 A 
ATOM     49  C   UNL     1       9.251   3.511   0.000  0.00  0.00    +0.000 A 
ATOM     50  C   UNL     1       7.766   3.517   0.000  0.00  0.00    +0.000 A 
ATOM     51  C   UNL     1       8.510   3.946   0.000  0.00  0.00    +0.000 A 
BRANCH  44  54
ATOM     52  O   UNL     1      12.810   1.414   0.000  0.00  0.00    +0.000 OA
ATOM     53  O   UNL     1      12.810  -0.236   0.000  0.00  0.00    +0.000 OA
ATOM     54  C   UNL     1      10.667   1.002   0.000  0.00  0.00    +0.000 A 
ATOM     55  C   UNL     1      11.381   1.414   0.000  0.00  0.00    +0.000 A 
ATOM     56  C   UNL     1      10.667   0.177   0.000  0.00  0.00    +0.000 A 
ATOM     57  C   UNL     1      12.096   1.002   0.000  0.00  0.00    +0.000 A 
ATOM     58  C   UNL     1      11.381  -0.236   0.000  0.00  0.00    +0.000 A 
ATOM     59  C   UNL     1      12.096   0.177   0.000  0.00  0.00    +0.000 A 
ENDBRANCH  44  54
ENDBRANCH  38  43
ENDBRANCH   7  38
TORSDOF 13
