REMARK  Name = 42607857
REMARK  8 active torsions:
REMARK  status: ('A' for Active; 'I' for Inactive)
REMARK    1  A    between atoms: O_1  and  C_15
REMARK    2  A    between atoms: O_1  and  C_17
REMARK    3  A    between atoms: O_4  and  C_21
REMARK    4  A    between atoms: O_4  and  C_27
REMARK    5  A    between atoms: O_5  and  C_18
REMARK    6  A    between atoms: O_5  and  C_28
REMARK    7  A    between atoms: C_22  and  C_25
REMARK    8  A    between atoms: C_34  and  C_38
REMARK                            x       y       z     vdW  Elec       q    Type
REMARK                         _______ _______ _______ _____ _____    ______ ____
ROOT
ATOM      1  O   UNL     1       4.236  -0.642   0.000  0.00  0.00    +0.000 OA
ATOM      2  O   UNL     1       4.236  -3.117   0.000  0.00  0.00    +0.000 OA
ATOM      3  O   UNL     1       2.808  -2.292   0.000  0.00  0.00    +0.000 OA
ATOM      4  C   UNL     1       4.951  -1.879   0.000  0.00  0.00    +0.000 C 
ATOM      5  C   UNL     1       4.236  -2.292   0.000  0.00  0.00    +0.000 C 
ATOM      6  C   UNL     1       3.522  -1.879   0.000  0.00  0.00    +0.000 C 
ATOM      7  C   UNL     1       4.951  -1.054   0.000  0.00  0.00    +0.000 C 
ATOM      8  C   UNL     1       3.522  -1.054   0.000  0.00  0.00    +0.000 C 
ENDROOT
BRANCH   8  10
ATOM      9  O   UNL     1       2.093  -1.054   0.000  0.00  0.00    +0.000 OA
ATOM     10  C   UNL     1       2.808  -0.642   0.000  0.00  0.00    +0.000 C 
ENDBRANCH   8  10
BRANCH   4  11
ATOM     11  O   UNL     1       5.665  -2.292   0.000  0.00  0.00    +0.000 OA
BRANCH  11  15
ATOM     12  O   UNL     1       6.380  -1.054   0.000  0.00  0.00    +0.000 OA
ATOM     13  O   UNL     1       8.523  -2.292   0.000  0.00  0.00    +0.000 OA
ATOM     14  O   UNL     1       8.523  -0.642   0.000  0.00  0.00    +0.000 OA
ATOM     15  C   UNL     1       6.380  -1.879   0.000  0.00  0.00    +0.000 C 
ATOM     16  C   UNL     1       7.094  -2.292   0.000  0.00  0.00    +0.000 C 
ATOM     17  C   UNL     1       7.809  -1.879   0.000  0.00  0.00    +0.000 C 
ATOM     18  C   UNL     1       7.809  -1.054   0.000  0.00  0.00    +0.000 C 
ATOM     19  C   UNL     1       7.094  -0.642   0.000  0.00  0.00    +0.000 C 
ATOM     20  C   UNL     1       7.094   0.183   0.000  0.00  0.00    +0.000 C 
BRANCH  16  21
ATOM     21  O   UNL     1       7.094  -3.117   0.000  0.00  0.00    +0.000 OA
BRANCH  21  23
ATOM     22  O   UNL     1       8.523  -3.117   0.000  0.00  0.00    +0.000 OA
ATOM     23  C   UNL     1       7.809  -3.529   0.000  0.00  0.00    +0.000 C 
ATOM     24  C   UNL     1       7.809  -4.354   0.000  0.00  0.00    +0.000 C 
ENDBRANCH  21  23
ENDBRANCH  16  21
ENDBRANCH  11  15
ENDBRANCH   4  11
BRANCH   7  25
ATOM     25  O   UNL     1       5.665  -0.642   0.000  0.00  0.00    +0.000 OA
BRANCH  25  29
ATOM     26  O   UNL     1       7.114   1.885   0.000  0.00  0.00    +0.000 OA
ATOM     27  O   UNL     1       4.225   1.899   0.000  0.00  0.00    +0.000 OA
ATOM     28  O   UNL     1       4.975   3.131   0.000  0.00  0.00    +0.000 OA
ATOM     29  C   UNL     1       5.665   0.183   0.000  0.00  0.00    +0.000 A 
ATOM     30  C   UNL     1       6.408   0.616   0.000  0.00  0.00    +0.000 A 
ATOM     31  C   UNL     1       4.923   0.616   0.000  0.00  0.00    +0.000 A 
ATOM     32  C   UNL     1       6.398   1.475   0.000  0.00  0.00    +0.000 A 
ATOM     33  C   UNL     1       5.685   1.890   0.000  0.00  0.00    +0.000 A 
ATOM     34  C   UNL     1       4.933   1.475   0.000  0.00  0.00    +0.000 A 
ATOM     35  C   UNL     1       7.117   2.710   0.000  0.00  0.00    +0.000 C 
ATOM     36  C   UNL     1       6.404   3.125   0.000  0.00  0.00    +0.000 C 
ATOM     37  C   UNL     1       5.688   2.715   0.000  0.00  0.00    +0.000 C 
BRANCH  35  38
ATOM     38  C   UNL     1       7.833   3.119   0.000  0.00  0.00    +0.000 A 
ATOM     39  C   UNL     1       7.836   3.945   0.000  0.00  0.00    +0.000 A 
ATOM     40  C   UNL     1       8.546   2.704   0.000  0.00  0.00    +0.000 A 
ATOM     41  C   UNL     1       8.552   4.354   0.000  0.00  0.00    +0.000 A 
ATOM     42  C   UNL     1       9.262   3.114   0.000  0.00  0.00    +0.000 A 
ATOM     43  C   UNL     1       9.265   3.939   0.000  0.00  0.00    +0.000 A 
ENDBRANCH  35  38
ENDBRANCH  25  29
ENDBRANCH   7  25
TORSDOF 8
