REMARK  Name = 44259114
REMARK  9 active torsions:
REMARK  status: ('A' for Active; 'I' for Inactive)
REMARK    1  A    between atoms: O_1  and  C_22
REMARK    2  A    between atoms: O_1  and  C_25
REMARK    3  A    between atoms: O_4  and  C_26
REMARK    4  A    between atoms: O_4  and  C_39
REMARK    5  A    between atoms: O_12  and  C_38
REMARK    6  A    between atoms: O_12  and  C_43
REMARK    7  A    between atoms: C_28  and  C_32
REMARK    8  A    between atoms: C_37  and  C_40
REMARK    9  A    between atoms: C_48  and  C_49
REMARK                            x       y       z     vdW  Elec       q    Type
REMARK                         _______ _______ _______ _____ _____    ______ ____
ROOT
ATOM      1  O   UNL     1       7.114   0.227   0.000  0.00  0.00    +0.000 OA
ATOM      2  O   UNL     1       4.225   0.241   0.000  0.00  0.00    +0.000 OA
ATOM      3  O   UNL     1       4.975   1.473   0.000  0.00  0.00    +0.000 OA
ATOM      4  C   UNL     1       5.665  -1.474   0.000  0.00  0.00    +0.000 A 
ATOM      5  C   UNL     1       6.408  -1.042   0.000  0.00  0.00    +0.000 A 
ATOM      6  C   UNL     1       4.923  -1.042   0.000  0.00  0.00    +0.000 A 
ATOM      7  C   UNL     1       6.404   1.467   0.000  0.00  0.00    +0.000 A 
ATOM      8  C   UNL     1       6.398  -0.183   0.000  0.00  0.00    +0.000 A 
ATOM      9  C   UNL     1       5.685   0.233   0.000  0.00  0.00    +0.000 A 
ATOM     10  C   UNL     1       4.933  -0.183   0.000  0.00  0.00    +0.000 A 
ATOM     11  C   UNL     1       5.688   1.058   0.000  0.00  0.00    +0.000 A 
ATOM     12  C   UNL     1       7.117   1.052   0.000  0.00  0.00    +0.000 A 
ENDROOT
BRANCH  12  15
ATOM     13  O   UNL     1       9.975   1.041   0.000  0.00  0.00    +0.000 OA
ATOM     14  O   UNL     1       9.981   2.691   0.000  0.00  0.00    +0.000 OA
ATOM     15  C   UNL     1       7.833   1.462   0.000  0.00  0.00    +0.000 A 
ATOM     16  C   UNL     1       8.546   1.047   0.000  0.00  0.00    +0.000 A 
ATOM     17  C   UNL     1       7.836   2.287   0.000  0.00  0.00    +0.000 A 
ATOM     18  C   UNL     1       9.262   1.456   0.000  0.00  0.00    +0.000 A 
ATOM     19  C   UNL     1       8.552   2.696   0.000  0.00  0.00    +0.000 A 
ATOM     20  C   UNL     1       9.265   2.281   0.000  0.00  0.00    +0.000 A 
ENDBRANCH  12  15
BRANCH   4  21
ATOM     21  O   UNL     1       5.665  -2.300   0.000  0.00  0.00    +0.000 OA
BRANCH  21  28
ATOM     22  O   UNL     1       4.236  -2.300   0.000  0.00  0.00    +0.000 OA
ATOM     23  O   UNL     1       4.236  -4.774   0.000  0.00  0.00    +0.000 OA
ATOM     24  O   UNL     1       2.808  -3.950   0.000  0.00  0.00    +0.000 OA
ATOM     25  C   UNL     1       4.951  -3.537   0.000  0.00  0.00    +0.000 C 
ATOM     26  C   UNL     1       4.236  -3.950   0.000  0.00  0.00    +0.000 C 
ATOM     27  C   UNL     1       3.522  -3.537   0.000  0.00  0.00    +0.000 C 
ATOM     28  C   UNL     1       4.951  -2.712   0.000  0.00  0.00    +0.000 C 
ATOM     29  C   UNL     1       3.522  -2.712   0.000  0.00  0.00    +0.000 C 
BRANCH  29  31
ATOM     30  O   UNL     1       2.093  -2.712   0.000  0.00  0.00    +0.000 OA
ATOM     31  C   UNL     1       2.808  -2.300   0.000  0.00  0.00    +0.000 C 
ENDBRANCH  29  31
BRANCH  25  32
ATOM     32  O   UNL     1       5.665  -3.950   0.000  0.00  0.00    +0.000 OA
BRANCH  32  37
ATOM     33  O   UNL     1       6.380  -2.712   0.000  0.00  0.00    +0.000 OA
ATOM     34  O   UNL     1       7.094  -4.774   0.000  0.00  0.00    +0.000 OA
ATOM     35  O   UNL     1       8.523  -3.950   0.000  0.00  0.00    +0.000 OA
ATOM     36  O   UNL     1       8.523  -2.300   0.000  0.00  0.00    +0.000 OA
ATOM     37  C   UNL     1       6.380  -3.537   0.000  0.00  0.00    +0.000 C 
ATOM     38  C   UNL     1       7.094  -3.950   0.000  0.00  0.00    +0.000 C 
ATOM     39  C   UNL     1       7.809  -3.537   0.000  0.00  0.00    +0.000 C 
ATOM     40  C   UNL     1       7.809  -2.712   0.000  0.00  0.00    +0.000 C 
ATOM     41  C   UNL     1       7.094  -2.300   0.000  0.00  0.00    +0.000 C 
ATOM     42  C   UNL     1       7.094  -1.474   0.000  0.00  0.00    +0.000 C 
ENDBRANCH  32  37
ENDBRANCH  25  32
ENDBRANCH  21  28
ENDBRANCH   4  21
BRANCH   7  43
ATOM     43  O   UNL     1       6.407   2.292   0.000  0.00  0.00    +0.000 OA
BRANCH  43  52
ATOM     44  O   UNL     1       4.979   2.298   0.000  0.00  0.00    +0.000 OA
ATOM     45  O   UNL     1       4.988   4.773   0.000  0.00  0.00    +0.000 OA
ATOM     46  O   UNL     1       3.556   3.953   0.000  0.00  0.00    +0.000 OA
ATOM     47  O   UNL     1       6.414   3.942   0.000  0.00  0.00    +0.000 OA
ATOM     48  C   UNL     1       4.985   3.948   0.000  0.00  0.00    +0.000 C 
ATOM     49  C   UNL     1       4.269   3.538   0.000  0.00  0.00    +0.000 C 
ATOM     50  C   UNL     1       5.698   3.533   0.000  0.00  0.00    +0.000 C 
ATOM     51  C   UNL     1       4.266   2.713   0.000  0.00  0.00    +0.000 C 
ATOM     52  C   UNL     1       5.695   2.708   0.000  0.00  0.00    +0.000 C 
BRANCH  51  54
ATOM     53  O   UNL     1       2.837   2.719   0.000  0.00  0.00    +0.000 OA
ATOM     54  C   UNL     1       3.550   2.303   0.000  0.00  0.00    +0.000 C 
ENDBRANCH  51  54
ENDBRANCH  43  52
ENDBRANCH   7  43
TORSDOF 9
