REMARK  Name = 44258144
REMARK  8 active torsions:
REMARK  status: ('A' for Active; 'I' for Inactive)
REMARK    1  A    between atoms: S_1  and  O_16
REMARK    2  A    between atoms: O_4  and  C_25
REMARK    3  A    between atoms: O_4  and  C_30
REMARK    4  A    between atoms: O_7  and  C_28
REMARK    5  A    between atoms: O_7  and  C_32
REMARK    6  A    between atoms: O_16  and  C_45
REMARK    7  A    between atoms: C_20  and  C_30
REMARK    8  A    between atoms: C_35  and  C_38
REMARK                            x       y       z     vdW  Elec       q    Type
REMARK                         _______ _______ _______ _____ _____    ______ ____
ROOT
ATOM      1  O   UNL     1      10.009   3.585   0.000  0.00  0.00    +0.000 OA
ATOM      2  C   UNL     1       9.294   2.347   0.000  0.00  0.00    +0.000 A 
ATOM      3  C   UNL     1       8.580   1.935   0.000  0.00  0.00    +0.000 A 
ATOM      4  C   UNL     1       9.294   3.172   0.000  0.00  0.00    +0.000 A 
ATOM      5  C   UNL     1       7.865   2.347   0.000  0.00  0.00    +0.000 A 
ATOM      6  C   UNL     1       8.580   3.585   0.000  0.00  0.00    +0.000 A 
ATOM      7  C   UNL     1       7.865   3.172   0.000  0.00  0.00    +0.000 A 
ENDROOT
BRANCH   5  11
ATOM      8  O   UNL     1       6.436   2.347   0.000  0.00  0.00    +0.000 OA
ATOM      9  O   UNL     1       6.436  -0.128   0.000  0.00  0.00    +0.000 OA
ATOM     10  O   UNL     1       4.994  -0.156   0.000  0.00  0.00    +0.000 OA
ATOM     11  C   UNL     1       7.151   1.935   0.000  0.00  0.00    +0.000 A 
ATOM     12  C   UNL     1       7.151   1.110   0.000  0.00  0.00    +0.000 A 
ATOM     13  C   UNL     1       5.722   1.935   0.000  0.00  0.00    +0.000 A 
ATOM     14  C   UNL     1       5.722   1.110   0.000  0.00  0.00    +0.000 A 
ATOM     15  C   UNL     1       6.436   0.697   0.000  0.00  0.00    +0.000 A 
ATOM     16  C   UNL     1       4.984   2.376   0.000  0.00  0.00    +0.000 A 
ATOM     17  C   UNL     1       4.984   0.668   0.000  0.00  0.00    +0.000 A 
ATOM     18  C   UNL     1       4.237   1.952   0.000  0.00  0.00    +0.000 A 
ATOM     19  C   UNL     1       4.237   1.093   0.000  0.00  0.00    +0.000 A 
BRANCH  18  20
ATOM     20  O   UNL     1       3.524   2.367   0.000  0.00  0.00    +0.000 OA
BRANCH  20  21
ATOM     21  S   UNL     1       2.808   1.957   0.000  0.00  0.00    +0.000 S 
ATOM     22  O   UNL     1       2.092   1.548   0.000  0.00  0.00    +0.000 OA
ATOM     23  O   UNL     1       2.398   2.673   0.000  0.00  0.00    +0.000 OA
ATOM     24  O   UNL     1       3.218   1.241   0.000  0.00  0.00    +0.000 OA
ENDBRANCH  20  21
ENDBRANCH  18  20
ENDBRANCH   5  11
BRANCH   2  25
ATOM     25  O   UNL     1      10.009   1.935   0.000  0.00  0.00    +0.000 OA
BRANCH  25  34
ATOM     26  O   UNL     1       9.294   0.697   0.000  0.00  0.00    +0.000 OA
ATOM     27  O   UNL     1      10.009  -1.365   0.000  0.00  0.00    +0.000 OA
ATOM     28  O   UNL     1      11.438  -0.540   0.000  0.00  0.00    +0.000 OA
ATOM     29  O   UNL     1      11.438   1.110   0.000  0.00  0.00    +0.000 OA
ATOM     30  C   UNL     1       9.294  -0.128   0.000  0.00  0.00    +0.000 C 
ATOM     31  C   UNL     1      10.009  -0.540   0.000  0.00  0.00    +0.000 C 
ATOM     32  C   UNL     1      10.723  -0.128   0.000  0.00  0.00    +0.000 C 
ATOM     33  C   UNL     1      10.723   0.697   0.000  0.00  0.00    +0.000 C 
ATOM     34  C   UNL     1      10.009   1.110   0.000  0.00  0.00    +0.000 C 
BRANCH  30  35
ATOM     35  C   UNL     1       8.580  -0.540   0.000  0.00  0.00    +0.000 C 
BRANCH  35  36
ATOM     36  O   UNL     1       8.580  -1.365   0.000  0.00  0.00    +0.000 OA
BRANCH  36  42
ATOM     37  O   UNL     1       7.151  -1.365   0.000  0.00  0.00    +0.000 OA
ATOM     38  O   UNL     1       8.580  -3.015   0.000  0.00  0.00    +0.000 OA
ATOM     39  O   UNL     1       7.151  -3.840   0.000  0.00  0.00    +0.000 OA
ATOM     40  O   UNL     1       5.722  -3.015   0.000  0.00  0.00    +0.000 OA
ATOM     41  C   UNL     1       7.865  -2.603   0.000  0.00  0.00    +0.000 C 
ATOM     42  C   UNL     1       7.865  -1.778   0.000  0.00  0.00    +0.000 C 
ATOM     43  C   UNL     1       7.151  -3.015   0.000  0.00  0.00    +0.000 C 
ATOM     44  C   UNL     1       6.436  -2.603   0.000  0.00  0.00    +0.000 C 
ATOM     45  C   UNL     1       6.436  -1.778   0.000  0.00  0.00    +0.000 C 
ATOM     46  C   UNL     1       5.722  -1.365   0.000  0.00  0.00    +0.000 C 
ENDBRANCH  36  42
ENDBRANCH  35  36
ENDBRANCH  30  35
ENDBRANCH  25  34
ENDBRANCH   2  25
TORSDOF 8
