REMARK  Name = 44258070
REMARK  5 active torsions:
REMARK  status: ('A' for Active; 'I' for Inactive)
REMARK    1  A    between atoms: O_2  and  C_17
REMARK    2  A    between atoms: O_2  and  C_19
REMARK    3  A    between atoms: O_6  and  C_18
REMARK    4  A    between atoms: C_16  and  C_18
REMARK    5  A    between atoms: C_27  and  C_29
REMARK                            x       y       z     vdW  Elec       q    Type
REMARK                         _______ _______ _______ _____ _____    ______ ____
ROOT
ATOM      1  O   UNL     1       7.385   1.141   0.000  0.00  0.00    +0.000 OA
ATOM      2  O   UNL     1       4.496   1.155   0.000  0.00  0.00    +0.000 OA
ATOM      3  O   UNL     1       5.247   2.387   0.000  0.00  0.00    +0.000 OA
ATOM      4  C   UNL     1       5.937  -0.561   0.000  0.00  0.00    +0.000 A 
ATOM      5  C   UNL     1       6.679  -0.128   0.000  0.00  0.00    +0.000 A 
ATOM      6  C   UNL     1       5.194  -0.128   0.000  0.00  0.00    +0.000 A 
ATOM      7  C   UNL     1       6.669   0.731   0.000  0.00  0.00    +0.000 A 
ATOM      8  C   UNL     1       5.957   1.146   0.000  0.00  0.00    +0.000 A 
ATOM      9  C   UNL     1       5.204   0.731   0.000  0.00  0.00    +0.000 A 
ATOM     10  C   UNL     1       5.960   1.971   0.000  0.00  0.00    +0.000 A 
ATOM     11  C   UNL     1       7.389   1.966   0.000  0.00  0.00    +0.000 A 
ATOM     12  C   UNL     1       6.676   2.381   0.000  0.00  0.00    +0.000 A 
ENDROOT
BRANCH  11  15
ATOM     13  O   UNL     1      10.246   1.955   0.000  0.00  0.00    +0.000 OA
ATOM     14  O   UNL     1      10.253   3.605   0.000  0.00  0.00    +0.000 OA
ATOM     15  C   UNL     1       8.105   2.376   0.000  0.00  0.00    +0.000 A 
ATOM     16  C   UNL     1       8.818   1.960   0.000  0.00  0.00    +0.000 A 
ATOM     17  C   UNL     1       8.108   3.201   0.000  0.00  0.00    +0.000 A 
ATOM     18  C   UNL     1       9.534   2.370   0.000  0.00  0.00    +0.000 A 
ATOM     19  C   UNL     1       8.824   3.610   0.000  0.00  0.00    +0.000 A 
ATOM     20  C   UNL     1       9.537   3.195   0.000  0.00  0.00    +0.000 A 
ENDBRANCH  11  15
BRANCH   4  21
ATOM     21  O   UNL     1       5.937  -1.386   0.000  0.00  0.00    +0.000 OA
BRANCH  21  30
ATOM     22  O   UNL     1       4.508  -1.386   0.000  0.00  0.00    +0.000 OA
ATOM     23  O   UNL     1       4.508  -3.861   0.000  0.00  0.00    +0.000 OA
ATOM     24  O   UNL     1       3.079  -3.036   0.000  0.00  0.00    +0.000 OA
ATOM     25  O   UNL     1       5.937  -3.036   0.000  0.00  0.00    +0.000 OA
ATOM     26  C   UNL     1       4.508  -3.036   0.000  0.00  0.00    +0.000 C 
ATOM     27  C   UNL     1       3.793  -2.623   0.000  0.00  0.00    +0.000 C 
ATOM     28  C   UNL     1       5.222  -2.623   0.000  0.00  0.00    +0.000 C 
ATOM     29  C   UNL     1       3.793  -1.798   0.000  0.00  0.00    +0.000 C 
ATOM     30  C   UNL     1       5.222  -1.798   0.000  0.00  0.00    +0.000 C 
BRANCH  29  32
ATOM     31  O   UNL     1       3.079  -0.561   0.000  0.00  0.00    +0.000 OA
ATOM     32  C   UNL     1       3.079  -1.386   0.000  0.00  0.00    +0.000 C 
BRANCH  32  33
ATOM     33  O   UNL     1       2.364  -1.798   0.000  0.00  0.00    +0.000 OA
ATOM     34  C   UNL     1       1.650  -1.386   0.000  0.00  0.00    +0.000 C 
ENDBRANCH  32  33
ENDBRANCH  29  32
ENDBRANCH  21  30
ENDBRANCH   4  21
TORSDOF 5
