REMARK  Name = 5322060
REMARK  3 active torsions:
REMARK  status: ('A' for Active; 'I' for Inactive)
REMARK    1  A    between atoms: O_2  and  C_12
REMARK    2  A    between atoms: O_3  and  C_17
REMARK    3  A    between atoms: C_10  and  C_11
REMARK                            x       y       z     vdW  Elec       q    Type
REMARK                         _______ _______ _______ _____ _____    ______ ____
ROOT
ATOM      1  O   UNL     1       5.006  -0.508   0.000  0.00  0.00    +0.000 OA
ATOM      2  O   UNL     1       3.564   1.996   0.000  0.00  0.00    +0.000 OA
ATOM      3  O   UNL     1       2.094  -0.528   0.000  0.00  0.00    +0.000 OA
ATOM      4  O   UNL     1       5.006   1.967   0.000  0.00  0.00    +0.000 OA
ATOM      5  C   UNL     1       4.292   0.730   0.000  0.00  0.00    +0.000 A 
ATOM      6  C   UNL     1       4.292  -0.095   0.000  0.00  0.00    +0.000 A 
ATOM      7  C   UNL     1       5.721  -0.095   0.000  0.00  0.00    +0.000 A 
ATOM      8  C   UNL     1       3.554  -0.536   0.000  0.00  0.00    +0.000 A 
ATOM      9  C   UNL     1       5.006   1.142   0.000  0.00  0.00    +0.000 A 
ATOM     10  C   UNL     1       5.721   0.730   0.000  0.00  0.00    +0.000 A 
ATOM     11  C   UNL     1       3.554   1.171   0.000  0.00  0.00    +0.000 A 
ATOM     12  C   UNL     1       2.807  -0.112   0.000  0.00  0.00    +0.000 A 
ATOM     13  C   UNL     1       2.807   0.747   0.000  0.00  0.00    +0.000 A 
ENDROOT
BRANCH   7  15
ATOM     14  O   UNL     1       5.721  -1.745   0.000  0.00  0.00    +0.000 OA
ATOM     15  C   UNL     1       6.435  -0.508   0.000  0.00  0.00    +0.000 A 
ATOM     16  C   UNL     1       7.150  -0.095   0.000  0.00  0.00    +0.000 A 
ATOM     17  C   UNL     1       6.435  -1.333   0.000  0.00  0.00    +0.000 A 
ATOM     18  C   UNL     1       7.864  -0.508   0.000  0.00  0.00    +0.000 A 
ATOM     19  C   UNL     1       7.150  -1.745   0.000  0.00  0.00    +0.000 A 
ATOM     20  C   UNL     1       7.864  -1.333   0.000  0.00  0.00    +0.000 A 
BRANCH  16  21
ATOM     21  O   UNL     1       7.150   0.730   0.000  0.00  0.00    +0.000 OA
ATOM     22  C   UNL     1       7.864   1.142   0.000  0.00  0.00    +0.000 C 
ENDBRANCH  16  21
ENDBRANCH   7  15
BRANCH   8  23
ATOM     23  O   UNL     1       3.564  -1.361   0.000  0.00  0.00    +0.000 OA
ATOM     24  C   UNL     1       2.854  -1.782   0.000  0.00  0.00    +0.000 C 
ENDBRANCH   8  23
TORSDOF 3
