REMARK  Name = 44257611
REMARK  7 active torsions:
REMARK  status: ('A' for Active; 'I' for Inactive)
REMARK    1  A    between atoms: O_2  and  C_16
REMARK    2  A    between atoms: O_2  and  C_18
REMARK    3  A    between atoms: O_6  and  C_17
REMARK    4  A    between atoms: O_6  and  C_21
REMARK    5  A    between atoms: O_11  and  C_33
REMARK    6  A    between atoms: C_14  and  C_17
REMARK    7  A    between atoms: C_19  and  C_22
REMARK                            x       y       z     vdW  Elec       q    Type
REMARK                         _______ _______ _______ _____ _____    ______ ____
ROOT
ATOM      1  C   UNL     1       6.651   0.953   0.000  0.00  0.00    +0.000 A 
ATOM      2  C   UNL     1       7.366   1.365   0.000  0.00  0.00    +0.000 A 
ATOM      3  C   UNL     1       5.937   1.365   0.000  0.00  0.00    +0.000 A 
ATOM      4  C   UNL     1       7.366   2.190   0.000  0.00  0.00    +0.000 A 
ATOM      5  C   UNL     1       5.937   2.190   0.000  0.00  0.00    +0.000 A 
ATOM      6  C   UNL     1       6.651   2.603   0.000  0.00  0.00    +0.000 A 
ENDROOT
BRANCH   2  10
ATOM      7  O   UNL     1       8.795   1.365   0.000  0.00  0.00    +0.000 OA
ATOM      8  O   UNL     1       8.795  -1.110   0.000  0.00  0.00    +0.000 OA
ATOM      9  O   UNL     1      10.237  -1.138   0.000  0.00  0.00    +0.000 OA
ATOM     10  C   UNL     1       8.080   0.953   0.000  0.00  0.00    +0.000 A 
ATOM     11  C   UNL     1       8.080   0.128   0.000  0.00  0.00    +0.000 A 
ATOM     12  C   UNL     1       9.509   0.953   0.000  0.00  0.00    +0.000 A 
ATOM     13  C   UNL     1       9.509   0.128   0.000  0.00  0.00    +0.000 A 
ATOM     14  C   UNL     1       8.795  -0.285   0.000  0.00  0.00    +0.000 A 
ATOM     15  C   UNL     1      10.247  -0.313   0.000  0.00  0.00    +0.000 A 
ATOM     16  C   UNL     1      10.247   1.394   0.000  0.00  0.00    +0.000 A 
ATOM     17  C   UNL     1      10.994   0.970   0.000  0.00  0.00    +0.000 A 
ATOM     18  C   UNL     1      10.994   0.111   0.000  0.00  0.00    +0.000 A 
BRANCH  17  19
ATOM     19  O   UNL     1      11.707   1.385   0.000  0.00  0.00    +0.000 OA
ATOM     20  C   UNL     1      11.704   2.210   0.000  0.00  0.00    +0.000 C 
ENDBRANCH  17  19
ENDBRANCH   2  10
BRANCH   1  21
ATOM     21  O   UNL     1       6.651   0.128   0.000  0.00  0.00    +0.000 OA
BRANCH  21  30
ATOM     22  O   UNL     1       5.222   0.128   0.000  0.00  0.00    +0.000 OA
ATOM     23  O   UNL     1       3.793  -1.522   0.000  0.00  0.00    +0.000 OA
ATOM     24  O   UNL     1       5.222  -2.347   0.000  0.00  0.00    +0.000 OA
ATOM     25  O   UNL     1       6.651  -1.522   0.000  0.00  0.00    +0.000 OA
ATOM     26  C   UNL     1       4.508  -1.110   0.000  0.00  0.00    +0.000 C 
ATOM     27  C   UNL     1       5.222  -1.522   0.000  0.00  0.00    +0.000 C 
ATOM     28  C   UNL     1       4.508  -0.285   0.000  0.00  0.00    +0.000 C 
ATOM     29  C   UNL     1       5.937  -1.110   0.000  0.00  0.00    +0.000 C 
ATOM     30  C   UNL     1       5.937  -0.285   0.000  0.00  0.00    +0.000 C 
BRANCH  28  31
ATOM     31  C   UNL     1       3.793   0.128   0.000  0.00  0.00    +0.000 C 
BRANCH  31  32
ATOM     32  O   UNL     1       3.079  -0.285   0.000  0.00  0.00    +0.000 OA
BRANCH  32  34
ATOM     33  O   UNL     1       2.365   0.953   0.000  0.00  0.00    +0.000 OA
ATOM     34  C   UNL     1       2.365   0.128   0.000  0.00  0.00    +0.000 C 
ATOM     35  C   UNL     1       1.650  -0.285   0.000  0.00  0.00    +0.000 C 
ENDBRANCH  32  34
ENDBRANCH  31  32
ENDBRANCH  28  31
ENDBRANCH  21  30
ENDBRANCH   1  21
TORSDOF 7
