REMARK  Name = 44258493
REMARK  11 active torsions:
REMARK  status: ('A' for Active; 'I' for Inactive)
REMARK    1  A    between atoms: O_1  and  C_20
REMARK    2  A    between atoms: O_1  and  C_22
REMARK    3  A    between atoms: O_5  and  C_26
REMARK    4  A    between atoms: O_5  and  C_32
REMARK    5  A    between atoms: O_10  and  C_31
REMARK    6  A    between atoms: O_10  and  C_35
REMARK    7  A    between atoms: C_27  and  C_30
REMARK    8  A    between atoms: C_29  and  C_31
REMARK    9  A    between atoms: C_35  and  C_39
REMARK   10  A    between atoms: C_41  and  C_44
REMARK   11  A    between atoms: C_43  and  C_45
REMARK                            x       y       z     vdW  Elec       q    Type
REMARK                         _______ _______ _______ _____ _____    ______ ____
ROOT
ATOM      1  O   UNL     1       4.236   2.333   0.000  0.00  0.00    +0.000 OA
ATOM      2  O   UNL     1       4.236  -0.142   0.000  0.00  0.00    +0.000 OA
ATOM      3  O   UNL     1       2.808   0.683   0.000  0.00  0.00    +0.000 OA
ATOM      4  C   UNL     1       4.951   1.095   0.000  0.00  0.00    +0.000 C 
ATOM      5  C   UNL     1       4.236   0.683   0.000  0.00  0.00    +0.000 C 
ATOM      6  C   UNL     1       3.522   1.095   0.000  0.00  0.00    +0.000 C 
ATOM      7  C   UNL     1       4.951   1.920   0.000  0.00  0.00    +0.000 C 
ATOM      8  C   UNL     1       3.522   1.920   0.000  0.00  0.00    +0.000 C 
ENDROOT
BRANCH   8  10
ATOM      9  O   UNL     1       2.093   1.920   0.000  0.00  0.00    +0.000 OA
ATOM     10  C   UNL     1       2.808   2.333   0.000  0.00  0.00    +0.000 C 
ENDBRANCH   8  10
BRANCH   4  11
ATOM     11  O   UNL     1       5.665   0.683   0.000  0.00  0.00    +0.000 OA
BRANCH  11  16
ATOM     12  O   UNL     1       4.951  -0.555   0.000  0.00  0.00    +0.000 OA
ATOM     13  O   UNL     1       7.094  -0.142   0.000  0.00  0.00    +0.000 OA
ATOM     14  O   UNL     1       7.094  -1.792   0.000  0.00  0.00    +0.000 OA
ATOM     15  O   UNL     1       5.665  -2.617   0.000  0.00  0.00    +0.000 OA
ATOM     16  C   UNL     1       5.665  -0.142   0.000  0.00  0.00    +0.000 C 
ATOM     17  C   UNL     1       6.380  -0.555   0.000  0.00  0.00    +0.000 C 
ATOM     18  C   UNL     1       6.380  -1.380   0.000  0.00  0.00    +0.000 C 
ATOM     19  C   UNL     1       5.665  -1.792   0.000  0.00  0.00    +0.000 C 
ATOM     20  C   UNL     1       4.951  -1.380   0.000  0.00  0.00    +0.000 C 
BRANCH  20  21
ATOM     21  C   UNL     1       4.236  -1.792   0.000  0.00  0.00    +0.000 C 
BRANCH  21  22
ATOM     22  O   UNL     1       4.236  -2.617   0.000  0.00  0.00    +0.000 OA
BRANCH  22  24
ATOM     23  O   UNL     1       2.808  -2.617   0.000  0.00  0.00    +0.000 OA
ATOM     24  C   UNL     1       3.522  -3.030   0.000  0.00  0.00    +0.000 C 
BRANCH  24  25
ATOM     25  C   UNL     1       3.522  -3.855   0.000  0.00  0.00    +0.000 C 
ATOM     26  C   UNL     1       2.808  -4.267   0.000  0.00  0.00    +0.000 C 
BRANCH  26  28
ATOM     27  O   UNL     1       2.808  -7.567   0.000  0.00  0.00    +0.000 OA
ATOM     28  C   UNL     1       2.808  -5.092   0.000  0.00  0.00    +0.000 A 
ATOM     29  C   UNL     1       3.522  -5.505   0.000  0.00  0.00    +0.000 A 
ATOM     30  C   UNL     1       2.093  -5.505   0.000  0.00  0.00    +0.000 A 
ATOM     31  C   UNL     1       3.522  -6.330   0.000  0.00  0.00    +0.000 A 
ATOM     32  C   UNL     1       2.093  -6.330   0.000  0.00  0.00    +0.000 A 
ATOM     33  C   UNL     1       2.808  -6.742   0.000  0.00  0.00    +0.000 A 
ENDBRANCH  26  28
ENDBRANCH  24  25
ENDBRANCH  22  24
ENDBRANCH  21  22
ENDBRANCH  20  21
ENDBRANCH  11  16
ENDBRANCH   4  11
BRANCH   7  34
ATOM     34  O   UNL     1       5.665   2.333   0.000  0.00  0.00    +0.000 OA
BRANCH  34  39
ATOM     35  O   UNL     1       4.236   3.158   0.000  0.00  0.00    +0.000 OA
ATOM     36  O   UNL     1       7.131   4.813   0.000  0.00  0.00    +0.000 OA
ATOM     37  O   UNL     1       4.236   4.808   0.000  0.00  0.00    +0.000 OA
ATOM     38  O   UNL     1       4.933   6.071   0.000  0.00  0.00    +0.000 OA
ATOM     39  C   UNL     1       5.665   3.158   0.000  0.00  0.00    +0.000 A 
ATOM     40  C   UNL     1       4.951   3.570   0.000  0.00  0.00    +0.000 A 
ATOM     41  C   UNL     1       6.380   3.570   0.000  0.00  0.00    +0.000 A 
ATOM     42  C   UNL     1       6.380   4.395   0.000  0.00  0.00    +0.000 A 
ATOM     43  C   UNL     1       4.951   4.395   0.000  0.00  0.00    +0.000 A 
ATOM     44  C   UNL     1       5.665   4.808   0.000  0.00  0.00    +0.000 A 
ATOM     45  C   UNL     1       5.652   5.667   0.000  0.00  0.00    +0.000 A 
ATOM     46  C   UNL     1       7.137   5.673   0.000  0.00  0.00    +0.000 A 
ATOM     47  C   UNL     1       6.393   6.102   0.000  0.00  0.00    +0.000 A 
BRANCH  46  50
ATOM     48  O   UNL     1       9.995   5.662   0.000  0.00  0.00    +0.000 OA
ATOM     49  O   UNL     1      10.001   7.312   0.000  0.00  0.00    +0.000 OA
ATOM     50  C   UNL     1       7.853   6.082   0.000  0.00  0.00    +0.000 A 
ATOM     51  C   UNL     1       8.566   5.667   0.000  0.00  0.00    +0.000 A 
ATOM     52  C   UNL     1       7.856   6.907   0.000  0.00  0.00    +0.000 A 
ATOM     53  C   UNL     1       9.282   6.077   0.000  0.00  0.00    +0.000 A 
ATOM     54  C   UNL     1       8.572   7.317   0.000  0.00  0.00    +0.000 A 
ATOM     55  C   UNL     1       9.285   6.902   0.000  0.00  0.00    +0.000 A 
ENDBRANCH  46  50
ENDBRANCH  34  39
ENDBRANCH   7  34
TORSDOF 11
