REMARK  Name = 44258204
REMARK  8 active torsions:
REMARK  status: ('A' for Active; 'I' for Inactive)
REMARK    1  A    between atoms: O_3  and  C_20
REMARK    2  A    between atoms: O_3  and  C_24
REMARK    3  A    between atoms: O_8  and  C_25
REMARK    4  A    between atoms: O_8  and  C_27
REMARK    5  A    between atoms: O_14  and  C_39
REMARK    6  A    between atoms: C_16  and  C_26
REMARK    7  A    between atoms: C_17  and  C_24
REMARK    8  A    between atoms: C_34  and  C_36
REMARK                            x       y       z     vdW  Elec       q    Type
REMARK                         _______ _______ _______ _____ _____    ______ ____
ROOT
ATOM      1  O   UNL     1       8.400  -1.386   0.000  0.00  0.00    +0.000 OA
ENDROOT
BRANCH   1   5
ATOM      2  O   UNL     1       9.849   1.141   0.000  0.00  0.00    +0.000 OA
ATOM      3  O   UNL     1       6.959   1.155   0.000  0.00  0.00    +0.000 OA
ATOM      4  O   UNL     1       7.710   2.387   0.000  0.00  0.00    +0.000 OA
ATOM      5  C   UNL     1       8.400  -0.561   0.000  0.00  0.00    +0.000 A 
ATOM      6  C   UNL     1       9.143  -0.128   0.000  0.00  0.00    +0.000 A 
ATOM      7  C   UNL     1       7.657  -0.128   0.000  0.00  0.00    +0.000 A 
ATOM      8  C   UNL     1       9.133   0.731   0.000  0.00  0.00    +0.000 A 
ATOM      9  C   UNL     1       7.667   0.731   0.000  0.00  0.00    +0.000 A 
ATOM     10  C   UNL     1       8.420   1.146   0.000  0.00  0.00    +0.000 A 
ATOM     11  C   UNL     1       8.423   1.971   0.000  0.00  0.00    +0.000 A 
ATOM     12  C   UNL     1       9.852   1.966   0.000  0.00  0.00    +0.000 A 
ATOM     13  C   UNL     1       9.139   2.381   0.000  0.00  0.00    +0.000 A 
BRANCH  12  15
ATOM     14  O   UNL     1      12.716   3.605   0.000  0.00  0.00    +0.000 OA
ATOM     15  C   UNL     1      10.568   2.376   0.000  0.00  0.00    +0.000 A 
ATOM     16  C   UNL     1      11.281   1.960   0.000  0.00  0.00    +0.000 A 
ATOM     17  C   UNL     1      10.571   3.201   0.000  0.00  0.00    +0.000 A 
ATOM     18  C   UNL     1      11.997   2.370   0.000  0.00  0.00    +0.000 A 
ATOM     19  C   UNL     1      11.287   3.610   0.000  0.00  0.00    +0.000 A 
ATOM     20  C   UNL     1      12.000   3.195   0.000  0.00  0.00    +0.000 A 
BRANCH  18  21
ATOM     21  O   UNL     1      12.710   1.955   0.000  0.00  0.00    +0.000 OA
ATOM     22  C   UNL     1      13.426   2.365   0.000  0.00  0.00    +0.000 C 
ENDBRANCH  18  21
ENDBRANCH  12  15
ENDBRANCH   1   5
BRANCH   1  31
ATOM     23  O   UNL     1       6.971  -1.386   0.000  0.00  0.00    +0.000 OA
ATOM     24  O   UNL     1       5.542  -3.036   0.000  0.00  0.00    +0.000 OA
ATOM     25  O   UNL     1       6.971  -3.861   0.000  0.00  0.00    +0.000 OA
ATOM     26  O   UNL     1       8.400  -3.036   0.000  0.00  0.00    +0.000 OA
ATOM     27  C   UNL     1       6.256  -1.798   0.000  0.00  0.00    +0.000 C 
ATOM     28  C   UNL     1       6.256  -2.623   0.000  0.00  0.00    +0.000 C 
ATOM     29  C   UNL     1       6.971  -3.036   0.000  0.00  0.00    +0.000 C 
ATOM     30  C   UNL     1       7.686  -2.623   0.000  0.00  0.00    +0.000 C 
ATOM     31  C   UNL     1       7.686  -1.798   0.000  0.00  0.00    +0.000 C 
BRANCH  27  32
ATOM     32  C   UNL     1       5.542  -1.386   0.000  0.00  0.00    +0.000 C 
BRANCH  32  33
ATOM     33  O   UNL     1       4.828  -1.798   0.000  0.00  0.00    +0.000 OA
BRANCH  33  39
ATOM     34  O   UNL     1       4.027  -0.565   0.000  0.00  0.00    +0.000 OA
ATOM     35  O   UNL     1       2.194  -1.660   0.000  0.00  0.00    +0.000 OA
ATOM     36  O   UNL     1       3.188  -2.528   0.000  0.00  0.00    +0.000 OA
ATOM     37  C   UNL     1       2.808  -1.108   0.000  0.00  0.00    +0.000 C 
ATOM     38  C   UNL     1       3.360  -1.721   0.000  0.00  0.00    +0.000 C 
ATOM     39  C   UNL     1       4.113  -1.386   0.000  0.00  0.00    +0.000 C 
ATOM     40  C   UNL     1       3.220  -0.394   0.000  0.00  0.00    +0.000 C 
BRANCH  37  42
ATOM     41  O   UNL     1       2.093   0.129   0.000  0.00  0.00    +0.000 OA
ATOM     42  C   UNL     1       2.093  -0.696   0.000  0.00  0.00    +0.000 C 
ENDBRANCH  37  42
ENDBRANCH  33  39
ENDBRANCH  32  33
ENDBRANCH  27  32
ENDBRANCH   1  31
TORSDOF 8
