REMARK  Name = 42607876
REMARK  5 active torsions:
REMARK  status: ('A' for Active; 'I' for Inactive)
REMARK    1  A    between atoms: O_2  and  C_13
REMARK    2  A    between atoms: O_4  and  C_14
REMARK    3  A    between atoms: C_6  and  C_12
REMARK    4  A    between atoms: C_11  and  C_16
REMARK    5  A    between atoms: C_17  and  C_18
REMARK                            x       y       z     vdW  Elec       q    Type
REMARK                         _______ _______ _______ _____ _____    ______ ____
ROOT
ATOM      1  O   UNL     1       5.245   0.099   0.000  0.00  0.00    +0.000 OA
ATOM      2  O   UNL     1       5.236   2.631   0.000  0.00  0.00    +0.000 OA
ATOM      3  C   UNL     1       5.993   0.523   0.000  0.00  0.00    +0.000 C 
ATOM      4  C   UNL     1       5.993   1.383   0.000  0.00  0.00    +0.000 C 
ATOM      5  C   UNL     1       4.508   0.540   0.000  0.00  0.00    +0.000 A 
ATOM      6  C   UNL     1       4.508   1.365   0.000  0.00  0.00    +0.000 A 
ATOM      7  C   UNL     1       5.245   1.806   0.000  0.00  0.00    +0.000 C 
ATOM      8  C   UNL     1       3.793   0.128   0.000  0.00  0.00    +0.000 A 
ATOM      9  C   UNL     1       3.793   1.778   0.000  0.00  0.00    +0.000 A 
ATOM     10  C   UNL     1       3.079   0.540   0.000  0.00  0.00    +0.000 A 
ATOM     11  C   UNL     1       3.079   1.365   0.000  0.00  0.00    +0.000 A 
ENDROOT
BRANCH   3  12
ATOM     12  C   UNL     1       6.706   0.108   0.000  0.00  0.00    +0.000 A 
ATOM     13  C   UNL     1       7.422   0.518   0.000  0.00  0.00    +0.000 A 
ATOM     14  C   UNL     1       6.703  -0.717   0.000  0.00  0.00    +0.000 A 
ATOM     15  C   UNL     1       8.135   0.102   0.000  0.00  0.00    +0.000 A 
ATOM     16  C   UNL     1       7.415  -1.132   0.000  0.00  0.00    +0.000 A 
ATOM     17  C   UNL     1       8.132  -0.723   0.000  0.00  0.00    +0.000 A 
ENDBRANCH   3  12
BRANCH   9  18
ATOM     18  O   UNL     1       3.793   2.603   0.000  0.00  0.00    +0.000 OA
ATOM     19  C   UNL     1       3.079   3.015   0.000  0.00  0.00    +0.000 C 
ENDBRANCH   9  18
BRANCH  10  20
ATOM     20  O   UNL     1       2.364   0.128   0.000  0.00  0.00    +0.000 OA
ATOM     21  C   UNL     1       1.650   0.540   0.000  0.00  0.00    +0.000 C 
ENDBRANCH  10  20
BRANCH   8  22
ATOM     22  C   UNL     1       3.793  -0.697   0.000  0.00  0.00    +0.000 C 
ATOM     23  C   UNL     1       3.079  -1.110   0.000  0.00  0.00    +0.000 C 
BRANCH  23  25
ATOM     24  O   UNL     1       3.079  -2.760   0.000  0.00  0.00    +0.000 OA
ATOM     25  C   UNL     1       3.079  -1.935   0.000  0.00  0.00    +0.000 C 
ATOM     26  C   UNL     1       2.254  -1.935   0.000  0.00  0.00    +0.000 C 
ATOM     27  C   UNL     1       3.904  -1.935   0.000  0.00  0.00    +0.000 C 
ENDBRANCH  23  25
ENDBRANCH   8  22
TORSDOF 5
