REMARK  Name = 44260052
REMARK  10 active torsions:
REMARK  status: ('A' for Active; 'I' for Inactive)
REMARK    1  A    between atoms: O_1  and  C_19
REMARK    2  A    between atoms: O_1  and  C_20
REMARK    3  A    between atoms: O_9  and  C_27
REMARK    4  A    between atoms: O_9  and  C_30
REMARK    5  A    between atoms: O_13  and  C_37
REMARK    6  A    between atoms: O_14  and  C_41
REMARK    7  A    between atoms: O_15  and  C_42
REMARK    8  A    between atoms: O_17  and  C_43
REMARK    9  A    between atoms: C_24  and  C_29
REMARK   10  A    between atoms: C_35  and  C_36
REMARK                            x       y       z     vdW  Elec       q    Type
REMARK                         _______ _______ _______ _____ _____    ______ ____
ROOT
ATOM      1  C   UNL     1       7.094  -0.310   0.000  0.00  0.00    +0.000 A 
ATOM      2  C   UNL     1       7.809   0.102   0.000  0.00  0.00    +0.000 A 
ATOM      3  C   UNL     1       6.380   0.102   0.000  0.00  0.00    +0.000 A 
ATOM      4  C   UNL     1       7.809   0.927   0.000  0.00  0.00    +0.000 A 
ATOM      5  C   UNL     1       6.380   0.927   0.000  0.00  0.00    +0.000 A 
ATOM      6  C   UNL     1       7.094   1.340   0.000  0.00  0.00    +0.000 A 
ENDROOT
BRANCH   6  10
ATOM      7  O   UNL     1       7.837   2.597   0.000  0.00  0.00    +0.000 OA
ATOM      8  O   UNL     1       5.654   3.880   0.000  0.00  0.00    +0.000 OA
ATOM      9  O   UNL     1       9.262   5.101   0.000  0.00  0.00    +0.000 OA
ATOM     10  C   UNL     1       7.094   2.165   0.000  0.00  0.00    +0.000 A 
ATOM     11  C   UNL     1       6.352   2.597   0.000  0.00  0.00    +0.000 A 
ATOM     12  C   UNL     1       7.827   3.456   0.000  0.00  0.00    +0.000 A 
ATOM     13  C   UNL     1       7.114   3.872   0.000  0.00  0.00    +0.000 A 
ATOM     14  C   UNL     1       6.362   3.456   0.000  0.00  0.00    +0.000 A 
ATOM     15  C   UNL     1       7.117   4.697   0.000  0.00  0.00    +0.000 A 
ATOM     16  C   UNL     1       8.543   3.866   0.000  0.00  0.00    +0.000 A 
ATOM     17  C   UNL     1       7.833   5.106   0.000  0.00  0.00    +0.000 A 
ATOM     18  C   UNL     1       8.546   4.691   0.000  0.00  0.00    +0.000 A 
BRANCH  11  19
ATOM     19  O   UNL     1       5.634   2.190   0.000  0.00  0.00    +0.000 OA
ATOM     20  C   UNL     1       4.923   2.608   0.000  0.00  0.00    +0.000 C 
ENDBRANCH  11  19
BRANCH  15  21
ATOM     21  O   UNL     1       6.404   5.112   0.000  0.00  0.00    +0.000 OA
ATOM     22  C   UNL     1       6.407   5.937   0.000  0.00  0.00    +0.000 C 
ENDBRANCH  15  21
BRANCH  16  23
ATOM     23  O   UNL     1       9.256   3.451   0.000  0.00  0.00    +0.000 OA
ATOM     24  C   UNL     1       9.972   3.861   0.000  0.00  0.00    +0.000 C 
ENDBRANCH  16  23
BRANCH  17  25
ATOM     25  O   UNL     1       7.836   5.931   0.000  0.00  0.00    +0.000 OA
ATOM     26  C   UNL     1       8.552   6.341   0.000  0.00  0.00    +0.000 C 
ENDBRANCH  17  25
ENDBRANCH   6  10
BRANCH   1  27
ATOM     27  O   UNL     1       7.094  -1.135   0.000  0.00  0.00    +0.000 OA
BRANCH  27  35
ATOM     28  O   UNL     1       5.665  -1.135   0.000  0.00  0.00    +0.000 OA
ATOM     29  O   UNL     1       7.094  -2.785   0.000  0.00  0.00    +0.000 OA
ATOM     30  O   UNL     1       4.236  -2.785   0.000  0.00  0.00    +0.000 OA
ATOM     31  O   UNL     1       4.236  -1.135   0.000  0.00  0.00    +0.000 OA
ATOM     32  C   UNL     1       5.665  -2.785   0.000  0.00  0.00    +0.000 C 
ATOM     33  C   UNL     1       6.380  -2.373   0.000  0.00  0.00    +0.000 C 
ATOM     34  C   UNL     1       4.951  -2.373   0.000  0.00  0.00    +0.000 C 
ATOM     35  C   UNL     1       6.380  -1.548   0.000  0.00  0.00    +0.000 C 
ATOM     36  C   UNL     1       4.951  -1.548   0.000  0.00  0.00    +0.000 C 
BRANCH  32  37
ATOM     37  O   UNL     1       5.665  -3.610   0.000  0.00  0.00    +0.000 OA
BRANCH  37  42
ATOM     38  O   UNL     1       4.236  -3.610   0.000  0.00  0.00    +0.000 OA
ATOM     39  O   UNL     1       5.665  -5.260   0.000  0.00  0.00    +0.000 OA
ATOM     40  O   UNL     1       4.236  -6.085   0.000  0.00  0.00    +0.000 OA
ATOM     41  O   UNL     1       2.808  -5.260   0.000  0.00  0.00    +0.000 OA
ATOM     42  C   UNL     1       4.951  -4.023   0.000  0.00  0.00    +0.000 C 
ATOM     43  C   UNL     1       4.951  -4.848   0.000  0.00  0.00    +0.000 C 
ATOM     44  C   UNL     1       4.236  -5.260   0.000  0.00  0.00    +0.000 C 
ATOM     45  C   UNL     1       3.522  -4.848   0.000  0.00  0.00    +0.000 C 
ATOM     46  C   UNL     1       3.522  -4.023   0.000  0.00  0.00    +0.000 C 
BRANCH  46  48
ATOM     47  O   UNL     1       2.093  -4.023   0.000  0.00  0.00    +0.000 OA
ATOM     48  C   UNL     1       2.808  -3.610   0.000  0.00  0.00    +0.000 C 
ENDBRANCH  46  48
ENDBRANCH  37  42
ENDBRANCH  32  37
ENDBRANCH  27  35
ENDBRANCH   1  27
TORSDOF 10
