REMARK  Name = 42607523
REMARK  8 active torsions:
REMARK  status: ('A' for Active; 'I' for Inactive)
REMARK    1  A    between atoms: O_1  and  C_14
REMARK    2  A    between atoms: O_1  and  C_16
REMARK    3  A    between atoms: O_8  and  C_23
REMARK    4  A    between atoms: O_8  and  C_26
REMARK    5  A    between atoms: C_22  and  C_25
REMARK    6  A    between atoms: C_27  and  C_31
REMARK    7  A    between atoms: C_31  and  C_33
REMARK    8  A    between atoms: C_34  and  C_35
REMARK                            x       y       z     vdW  Elec       q    Type
REMARK                         _______ _______ _______ _____ _____    ______ ____
ROOT
ATOM      1  O   UNL     1       4.951  -1.444   0.000  0.00  0.00    +0.000 OA
ATOM      2  O   UNL     1       7.094  -2.681   0.000  0.00  0.00    +0.000 OA
ATOM      3  O   UNL     1       7.094  -1.031   0.000  0.00  0.00    +0.000 OA
ATOM      4  C   UNL     1       5.665  -2.681   0.000  0.00  0.00    +0.000 C 
ATOM      5  C   UNL     1       6.380  -2.269   0.000  0.00  0.00    +0.000 C 
ATOM      6  C   UNL     1       4.951  -2.269   0.000  0.00  0.00    +0.000 C 
ATOM      7  C   UNL     1       6.380  -1.444   0.000  0.00  0.00    +0.000 C 
ATOM      8  C   UNL     1       5.665  -1.031   0.000  0.00  0.00    +0.000 C 
ATOM      9  C   UNL     1       4.236  -2.681   0.000  0.00  0.00    +0.000 C 
ENDROOT
BRANCH   4  10
ATOM     10  O   UNL     1       5.665  -3.506   0.000  0.00  0.00    +0.000 OA
BRANCH  10  15
ATOM     11  O   UNL     1       4.236  -3.506   0.000  0.00  0.00    +0.000 OA
ATOM     12  O   UNL     1       5.665  -5.156   0.000  0.00  0.00    +0.000 OA
ATOM     13  O   UNL     1       4.236  -5.981   0.000  0.00  0.00    +0.000 OA
ATOM     14  O   UNL     1       2.808  -5.156   0.000  0.00  0.00    +0.000 OA
ATOM     15  C   UNL     1       4.951  -3.919   0.000  0.00  0.00    +0.000 C 
ATOM     16  C   UNL     1       4.951  -4.744   0.000  0.00  0.00    +0.000 C 
ATOM     17  C   UNL     1       4.236  -5.156   0.000  0.00  0.00    +0.000 C 
ATOM     18  C   UNL     1       3.522  -4.744   0.000  0.00  0.00    +0.000 C 
ATOM     19  C   UNL     1       3.522  -3.919   0.000  0.00  0.00    +0.000 C 
BRANCH  19  21
ATOM     20  O   UNL     1       2.093  -3.919   0.000  0.00  0.00    +0.000 OA
ATOM     21  C   UNL     1       2.808  -3.506   0.000  0.00  0.00    +0.000 C 
ENDBRANCH  19  21
ENDBRANCH  10  15
ENDBRANCH   4  10
BRANCH   8  22
ATOM     22  O   UNL     1       5.665  -0.206   0.000  0.00  0.00    +0.000 OA
BRANCH  22  24
ATOM     23  O   UNL     1       2.808  -0.206   0.000  0.00  0.00    +0.000 OA
ATOM     24  C   UNL     1       4.951   0.206   0.000  0.00  0.00    +0.000 A 
ATOM     25  C   UNL     1       4.951   1.031   0.000  0.00  0.00    +0.000 A 
ATOM     26  C   UNL     1       4.236  -0.206   0.000  0.00  0.00    +0.000 A 
ATOM     27  C   UNL     1       4.236   1.444   0.000  0.00  0.00    +0.000 A 
ATOM     28  C   UNL     1       3.522   0.206   0.000  0.00  0.00    +0.000 A 
ATOM     29  C   UNL     1       3.522   1.031   0.000  0.00  0.00    +0.000 A 
BRANCH  25  31
ATOM     30  O   UNL     1       6.380   1.031   0.000  0.00  0.00    +0.000 OA
ATOM     31  C   UNL     1       5.665   1.444   0.000  0.00  0.00    +0.000 C 
BRANCH  31  32
ATOM     32  C   UNL     1       5.665   2.269   0.000  0.00  0.00    +0.000 C 
ATOM     33  C   UNL     1       4.951   2.681   0.000  0.00  0.00    +0.000 C 
BRANCH  33  35
ATOM     34  O   UNL     1       4.951   5.981   0.000  0.00  0.00    +0.000 OA
ATOM     35  C   UNL     1       4.951   3.506   0.000  0.00  0.00    +0.000 A 
ATOM     36  C   UNL     1       5.665   3.919   0.000  0.00  0.00    +0.000 A 
ATOM     37  C   UNL     1       4.236   3.919   0.000  0.00  0.00    +0.000 A 
ATOM     38  C   UNL     1       5.665   4.744   0.000  0.00  0.00    +0.000 A 
ATOM     39  C   UNL     1       4.236   4.744   0.000  0.00  0.00    +0.000 A 
ATOM     40  C   UNL     1       4.951   5.156   0.000  0.00  0.00    +0.000 A 
ENDBRANCH  33  35
ENDBRANCH  31  32
ENDBRANCH  25  31
ENDBRANCH  22  24
ENDBRANCH   8  22
TORSDOF 8
