REMARK  Name = 44259653
REMARK  2 active torsions:
REMARK  status: ('A' for Active; 'I' for Inactive)
REMARK    1  A    between atoms: O_2  and  C_13
REMARK    2  A    between atoms: C_10  and  C_16
REMARK                            x       y       z     vdW  Elec       q    Type
REMARK                         _______ _______ _______ _____ _____    ______ ____
ROOT
ATOM      1  O   UNL     1       4.562  -0.508   0.000  0.00  0.00    +0.000 OA
ATOM      2  O   UNL     1       3.120   1.996   0.000  0.00  0.00    +0.000 OA
ATOM      3  O   UNL     1       1.650  -0.528   0.000  0.00  0.00    +0.000 OA
ATOM      4  O   UNL     1       4.562   1.967   0.000  0.00  0.00    +0.000 OA
ATOM      5  C   UNL     1       3.848   0.730   0.000  0.00  0.00    +0.000 A 
ATOM      6  C   UNL     1       3.848  -0.095   0.000  0.00  0.00    +0.000 A 
ATOM      7  C   UNL     1       3.110   1.171   0.000  0.00  0.00    +0.000 A 
ATOM      8  C   UNL     1       5.277  -0.095   0.000  0.00  0.00    +0.000 A 
ATOM      9  C   UNL     1       2.363   0.747   0.000  0.00  0.00    +0.000 A 
ATOM     10  C   UNL     1       4.562   1.142   0.000  0.00  0.00    +0.000 A 
ATOM     11  C   UNL     1       5.277   0.730   0.000  0.00  0.00    +0.000 A 
ATOM     12  C   UNL     1       3.110  -0.536   0.000  0.00  0.00    +0.000 A 
ATOM     13  C   UNL     1       2.363  -0.112   0.000  0.00  0.00    +0.000 A 
ATOM     14  C   UNL     1       1.650   1.162   0.000  0.00  0.00    +0.000 C 
ENDROOT
BRANCH   8  16
ATOM     15  O   UNL     1       8.135  -1.745   0.000  0.00  0.00    +0.000 OA
ATOM     16  C   UNL     1       5.991  -0.508   0.000  0.00  0.00    +0.000 A 
ATOM     17  C   UNL     1       6.706  -0.095   0.000  0.00  0.00    +0.000 A 
ATOM     18  C   UNL     1       5.991  -1.333   0.000  0.00  0.00    +0.000 A 
ATOM     19  C   UNL     1       7.420  -0.508   0.000  0.00  0.00    +0.000 A 
ATOM     20  C   UNL     1       6.706  -1.745   0.000  0.00  0.00    +0.000 A 
ATOM     21  C   UNL     1       7.420  -1.333   0.000  0.00  0.00    +0.000 A 
ENDBRANCH   8  16
BRANCH  11  22
ATOM     22  O   UNL     1       5.991   1.142   0.000  0.00  0.00    +0.000 OA
ATOM     23  C   UNL     1       5.991   1.967   0.000  0.00  0.00    +0.000 C 
ENDBRANCH  11  22
TORSDOF 2
