REMARK  Name = 101686456
REMARK  4 active torsions:
REMARK  status: ('A' for Active; 'I' for Inactive)
REMARK    1  A    between atoms: O_2  and  C_14
REMARK    2  A    between atoms: O_2  and  C_16
REMARK    3  A    between atoms: C_13  and  C_15
REMARK    4  A    between atoms: C_23  and  C_25
REMARK                            x       y       z     vdW  Elec       q    Type
REMARK                         _______ _______ _______ _____ _____    ______ ____
ROOT
ATOM      1  O   UNL     1       7.136   2.002   0.000  0.00  0.00    +0.000 OA
ATOM      2  O   UNL     1       4.225   2.056   0.000  0.00  0.00    +0.000 OA
ATOM      3  O   UNL     1       7.108  -0.472   0.000  0.00  0.00    +0.000 OA
ATOM      4  C   UNL     1       5.665   0.341   0.000  0.00  0.00    +0.000 A 
ATOM      5  C   UNL     1       6.408   0.773   0.000  0.00  0.00    +0.000 A 
ATOM      6  C   UNL     1       4.923   0.773   0.000  0.00  0.00    +0.000 A 
ATOM      7  C   UNL     1       6.417   1.598   0.000  0.00  0.00    +0.000 A 
ATOM      8  C   UNL     1       7.117   0.352   0.000  0.00  0.00    +0.000 A 
ATOM      9  C   UNL     1       4.933   1.633   0.000  0.00  0.00    +0.000 A 
ATOM     10  C   UNL     1       5.685   2.048   0.000  0.00  0.00    +0.000 A 
ATOM     11  C   UNL     1       7.846   1.582   0.000  0.00  0.00    +0.000 A 
ATOM     12  C   UNL     1       7.837   0.757   0.000  0.00  0.00    +0.000 A 
ENDROOT
BRANCH  11  13
ATOM     13  C   UNL     1       8.565   1.986   0.000  0.00  0.00    +0.000 A 
ATOM     14  C   UNL     1       8.575   2.811   0.000  0.00  0.00    +0.000 A 
ATOM     15  C   UNL     1       9.275   1.565   0.000  0.00  0.00    +0.000 A 
ATOM     16  C   UNL     1       9.294   3.215   0.000  0.00  0.00    +0.000 A 
ATOM     17  C   UNL     1       9.994   1.969   0.000  0.00  0.00    +0.000 A 
ATOM     18  C   UNL     1      10.004   2.794   0.000  0.00  0.00    +0.000 A 
ENDBRANCH  11  13
BRANCH   4  19
ATOM     19  O   UNL     1       5.665  -0.484   0.000  0.00  0.00    +0.000 OA
BRANCH  19  28
ATOM     20  O   UNL     1       4.236  -0.484   0.000  0.00  0.00    +0.000 OA
ATOM     21  O   UNL     1       4.236  -2.959   0.000  0.00  0.00    +0.000 OA
ATOM     22  O   UNL     1       2.807  -2.134   0.000  0.00  0.00    +0.000 OA
ATOM     23  O   UNL     1       5.665  -2.134   0.000  0.00  0.00    +0.000 OA
ATOM     24  C   UNL     1       4.236  -2.134   0.000  0.00  0.00    +0.000 C 
ATOM     25  C   UNL     1       3.522  -1.722   0.000  0.00  0.00    +0.000 C 
ATOM     26  C   UNL     1       4.951  -1.722   0.000  0.00  0.00    +0.000 C 
ATOM     27  C   UNL     1       3.522  -0.897   0.000  0.00  0.00    +0.000 C 
ATOM     28  C   UNL     1       4.951  -0.897   0.000  0.00  0.00    +0.000 C 
BRANCH  27  30
ATOM     29  O   UNL     1       2.093  -0.897   0.000  0.00  0.00    +0.000 OA
ATOM     30  C   UNL     1       2.807  -0.484   0.000  0.00  0.00    +0.000 C 
ENDBRANCH  27  30
ENDBRANCH  19  28
ENDBRANCH   4  19
TORSDOF 4
