REMARK  Name = 5315115
REMARK  2 active torsions:
REMARK  status: ('A' for Active; 'I' for Inactive)
REMARK    1  A    between atoms: O_4  and  C_20
REMARK    2  A    between atoms: C_19  and  C_21
REMARK                            x       y       z     vdW  Elec       q    Type
REMARK                         _______ _______ _______ _____ _____    ______ ____
ROOT
ATOM      1  O   UNL     1       2.957  -2.834   0.000  0.00  0.00    +0.000 OA
ATOM      2  O   UNL     1       4.438  -0.486   0.000  0.00  0.00    +0.000 OA
ATOM      3  O   UNL     1       5.880  -2.995   0.000  0.00  0.00    +0.000 OA
ATOM      4  O   UNL     1       6.627  -1.760   0.000  0.00  0.00    +0.000 OA
ATOM      5  C   UNL     1       2.957  -1.506   0.000  0.00  0.00    +0.000 C 
ATOM      6  C   UNL     1       2.475  -2.170   0.000  0.00  0.00    +0.000 C 
ATOM      7  C   UNL     1       3.737  -1.758   0.000  0.00  0.00    +0.000 A 
ATOM      8  C   UNL     1       3.737  -2.583   0.000  0.00  0.00    +0.000 A 
ATOM      9  C   UNL     1       2.288  -1.023   0.000  0.00  0.00    +0.000 C 
ATOM     10  C   UNL     1       3.210  -0.721   0.000  0.00  0.00    +0.000 C 
ATOM     11  C   UNL     1       4.452  -1.345   0.000  0.00  0.00    +0.000 A 
ATOM     12  C   UNL     1       1.650  -2.170   0.000  0.00  0.00    +0.000 C 
ATOM     13  C   UNL     1       5.166  -1.758   0.000  0.00  0.00    +0.000 A 
ATOM     14  C   UNL     1       4.452  -2.995   0.000  0.00  0.00    +0.000 A 
ATOM     15  C   UNL     1       5.166  -2.583   0.000  0.00  0.00    +0.000 A 
ATOM     16  C   UNL     1       5.917  -1.340   0.000  0.00  0.00    +0.000 A 
ATOM     17  C   UNL     1       5.179  -0.051   0.000  0.00  0.00    +0.000 A 
ATOM     18  C   UNL     1       5.923  -0.480   0.000  0.00  0.00    +0.000 A 
ENDROOT
BRANCH  17  20
ATOM     19  O   UNL     1       5.167   3.249   0.000  0.00  0.00    +0.000 OA
ATOM     20  C   UNL     1       5.176   0.774   0.000  0.00  0.00    +0.000 A 
ATOM     21  C   UNL     1       4.460   1.184   0.000  0.00  0.00    +0.000 A 
ATOM     22  C   UNL     1       5.889   1.190   0.000  0.00  0.00    +0.000 A 
ATOM     23  C   UNL     1       4.457   2.009   0.000  0.00  0.00    +0.000 A 
ATOM     24  C   UNL     1       5.886   2.015   0.000  0.00  0.00    +0.000 A 
ATOM     25  C   UNL     1       5.170   2.424   0.000  0.00  0.00    +0.000 A 
ENDBRANCH  17  20
BRANCH  18  26
ATOM     26  O   UNL     1       6.639  -0.070   0.000  0.00  0.00    +0.000 OA
ATOM     27  C   UNL     1       7.352  -0.486   0.000  0.00  0.00    +0.000 C 
ENDBRANCH  18  26
TORSDOF 2
