REMARK  Name = 44258227
REMARK  9 active torsions:
REMARK  status: ('A' for Active; 'I' for Inactive)
REMARK    1  A    between atoms: O_3  and  C_19
REMARK    2  A    between atoms: O_3  and  C_21
REMARK    3  A    between atoms: O_6  and  C_20
REMARK    4  A    between atoms: O_6  and  C_24
REMARK    5  A    between atoms: O_13  and  C_38
REMARK    6  A    between atoms: C_17  and  C_20
REMARK    7  A    between atoms: C_24  and  C_28
REMARK    8  A    between atoms: C_28  and  C_33
REMARK    9  A    between atoms: C_30  and  C_32
REMARK                            x       y       z     vdW  Elec       q    Type
REMARK                         _______ _______ _______ _____ _____    ______ ____
ROOT
ATOM      1  O   UNL     1       9.972   0.984   0.000  0.00  0.00    +0.000 OA
ATOM      2  O   UNL     1       7.082   0.998   0.000  0.00  0.00    +0.000 OA
ATOM      3  O   UNL     1       7.833   2.230   0.000  0.00  0.00    +0.000 OA
ATOM      4  C   UNL     1       8.523  -0.717   0.000  0.00  0.00    +0.000 A 
ATOM      5  C   UNL     1       9.266  -0.285   0.000  0.00  0.00    +0.000 A 
ATOM      6  C   UNL     1       7.781  -0.285   0.000  0.00  0.00    +0.000 A 
ATOM      7  C   UNL     1       9.256   0.574   0.000  0.00  0.00    +0.000 A 
ATOM      8  C   UNL     1       8.543   0.990   0.000  0.00  0.00    +0.000 A 
ATOM      9  C   UNL     1       7.791   0.574   0.000  0.00  0.00    +0.000 A 
ATOM     10  C   UNL     1       8.546   1.815   0.000  0.00  0.00    +0.000 A 
ATOM     11  C   UNL     1       9.975   1.809   0.000  0.00  0.00    +0.000 A 
ATOM     12  C   UNL     1       9.262   2.224   0.000  0.00  0.00    +0.000 A 
ENDROOT
BRANCH  11  14
ATOM     13  O   UNL     1      12.833   1.798   0.000  0.00  0.00    +0.000 OA
ATOM     14  C   UNL     1      10.691   2.219   0.000  0.00  0.00    +0.000 A 
ATOM     15  C   UNL     1      11.404   1.804   0.000  0.00  0.00    +0.000 A 
ATOM     16  C   UNL     1      10.694   3.044   0.000  0.00  0.00    +0.000 A 
ATOM     17  C   UNL     1      12.120   2.213   0.000  0.00  0.00    +0.000 A 
ATOM     18  C   UNL     1      11.410   3.454   0.000  0.00  0.00    +0.000 A 
ATOM     19  C   UNL     1      12.123   3.038   0.000  0.00  0.00    +0.000 A 
BRANCH  19  20
ATOM     20  O   UNL     1      12.839   3.448   0.000  0.00  0.00    +0.000 OA
ATOM     21  C   UNL     1      12.842   4.273   0.000  0.00  0.00    +0.000 C 
ENDBRANCH  19  20
ENDBRANCH  11  14
BRANCH   4  22
ATOM     22  O   UNL     1       8.523  -1.542   0.000  0.00  0.00    +0.000 OA
BRANCH  22  31
ATOM     23  O   UNL     1       7.094  -1.542   0.000  0.00  0.00    +0.000 OA
ATOM     24  O   UNL     1       5.665  -3.192   0.000  0.00  0.00    +0.000 OA
ATOM     25  O   UNL     1       7.094  -4.017   0.000  0.00  0.00    +0.000 OA
ATOM     26  O   UNL     1       8.523  -3.192   0.000  0.00  0.00    +0.000 OA
ATOM     27  C   UNL     1       6.380  -2.780   0.000  0.00  0.00    +0.000 C 
ATOM     28  C   UNL     1       7.094  -3.192   0.000  0.00  0.00    +0.000 C 
ATOM     29  C   UNL     1       6.380  -1.955   0.000  0.00  0.00    +0.000 C 
ATOM     30  C   UNL     1       7.809  -2.780   0.000  0.00  0.00    +0.000 C 
ATOM     31  C   UNL     1       7.809  -1.955   0.000  0.00  0.00    +0.000 C 
BRANCH  29  32
ATOM     32  C   UNL     1       5.665  -1.542   0.000  0.00  0.00    +0.000 C 
BRANCH  32  33
ATOM     33  O   UNL     1       4.951  -1.955   0.000  0.00  0.00    +0.000 OA
BRANCH  33  35
ATOM     34  O   UNL     1       4.236  -0.717   0.000  0.00  0.00    +0.000 OA
ATOM     35  C   UNL     1       4.236  -1.542   0.000  0.00  0.00    +0.000 C 
BRANCH  35  36
ATOM     36  C   UNL     1       3.522  -1.955   0.000  0.00  0.00    +0.000 C 
BRANCH  36  39
ATOM     37  O   UNL     1       2.093  -1.955   0.000  0.00  0.00    +0.000 OA
ATOM     38  O   UNL     1       2.808  -0.717   0.000  0.00  0.00    +0.000 OA
ATOM     39  C   UNL     1       2.808  -1.542   0.000  0.00  0.00    +0.000 C 
ENDBRANCH  36  39
ENDBRANCH  35  36
ENDBRANCH  33  35
ENDBRANCH  32  33
ENDBRANCH  29  32
ENDBRANCH  22  31
ENDBRANCH   4  22
TORSDOF 9
