REMARK  Name = 13964057
REMARK  11 active torsions:
REMARK  status: ('A' for Active; 'I' for Inactive)
REMARK    1  A    between atoms: O_1  and  C_21
REMARK    2  A    between atoms: O_1  and  C_23
REMARK    3  A    between atoms: O_4  and  C_26
REMARK    4  A    between atoms: O_4  and  C_38
REMARK    5  A    between atoms: O_12  and  C_37
REMARK    6  A    between atoms: O_12  and  C_43
REMARK    7  A    between atoms: C_30  and  C_32
REMARK    8  A    between atoms: C_36  and  C_39
REMARK    9  A    between atoms: C_41  and  C_48
REMARK   10  A    between atoms: C_45  and  C_49
REMARK   11  A    between atoms: C_49  and  C_50
REMARK                            x       y       z     vdW  Elec       q    Type
REMARK                         _______ _______ _______ _____ _____    ______ ____
ROOT
ATOM      1  O   UNL     1       7.104   0.999   0.000  0.00  0.00    +0.000 OA
ATOM      2  O   UNL     1       4.960  -0.238   0.000  0.00  0.00    +0.000 OA
ATOM      3  O   UNL     1       4.214   0.997   0.000  0.00  0.00    +0.000 OA
ATOM      4  C   UNL     1       6.389  -0.238   0.000  0.00  0.00    +0.000 A 
ATOM      5  C   UNL     1       5.675   0.174   0.000  0.00  0.00    +0.000 A 
ATOM      6  C   UNL     1       7.104   0.174   0.000  0.00  0.00    +0.000 A 
ATOM      7  C   UNL     1       5.675   0.999   0.000  0.00  0.00    +0.000 A 
ATOM      8  C   UNL     1       5.662   2.706   0.000  0.00  0.00    +0.000 A 
ATOM      9  C   UNL     1       6.389   1.412   0.000  0.00  0.00    +0.000 A 
ATOM     10  C   UNL     1       6.402   2.271   0.000  0.00  0.00    +0.000 A 
ATOM     11  C   UNL     1       4.924   1.417   0.000  0.00  0.00    +0.000 A 
ATOM     12  C   UNL     1       4.917   2.277   0.000  0.00  0.00    +0.000 A 
ENDROOT
BRANCH   6  14
ATOM     13  O   UNL     1       9.961  -1.476   0.000  0.00  0.00    +0.000 OA
ATOM     14  C   UNL     1       7.818  -0.238   0.000  0.00  0.00    +0.000 A 
ATOM     15  C   UNL     1       7.818  -1.063   0.000  0.00  0.00    +0.000 A 
ATOM     16  C   UNL     1       8.533   0.174   0.000  0.00  0.00    +0.000 A 
ATOM     17  C   UNL     1       8.533  -1.476   0.000  0.00  0.00    +0.000 A 
ATOM     18  C   UNL     1       9.247  -0.238   0.000  0.00  0.00    +0.000 A 
ATOM     19  C   UNL     1       9.247  -1.063   0.000  0.00  0.00    +0.000 A 
ENDBRANCH   6  14
BRANCH   4  20
ATOM     20  O   UNL     1       6.389  -1.063   0.000  0.00  0.00    +0.000 OA
BRANCH  20  27
ATOM     21  O   UNL     1       4.960  -1.063   0.000  0.00  0.00    +0.000 OA
ATOM     22  O   UNL     1       4.960  -3.538   0.000  0.00  0.00    +0.000 OA
ATOM     23  O   UNL     1       3.531  -2.713   0.000  0.00  0.00    +0.000 OA
ATOM     24  C   UNL     1       5.675  -2.301   0.000  0.00  0.00    +0.000 C 
ATOM     25  C   UNL     1       4.960  -2.713   0.000  0.00  0.00    +0.000 C 
ATOM     26  C   UNL     1       4.246  -2.301   0.000  0.00  0.00    +0.000 C 
ATOM     27  C   UNL     1       5.675  -1.476   0.000  0.00  0.00    +0.000 C 
ATOM     28  C   UNL     1       4.246  -1.476   0.000  0.00  0.00    +0.000 C 
ATOM     29  C   UNL     1       3.531  -1.063   0.000  0.00  0.00    +0.000 C 
BRANCH  24  30
ATOM     30  O   UNL     1       6.389  -2.713   0.000  0.00  0.00    +0.000 OA
BRANCH  30  35
ATOM     31  O   UNL     1       5.675  -3.951   0.000  0.00  0.00    +0.000 OA
ATOM     32  O   UNL     1       7.818  -3.538   0.000  0.00  0.00    +0.000 OA
ATOM     33  O   UNL     1       7.818  -5.188   0.000  0.00  0.00    +0.000 OA
ATOM     34  O   UNL     1       6.389  -6.013   0.000  0.00  0.00    +0.000 OA
ATOM     35  C   UNL     1       6.389  -3.538   0.000  0.00  0.00    +0.000 C 
ATOM     36  C   UNL     1       7.104  -3.951   0.000  0.00  0.00    +0.000 C 
ATOM     37  C   UNL     1       7.104  -4.776   0.000  0.00  0.00    +0.000 C 
ATOM     38  C   UNL     1       6.389  -5.188   0.000  0.00  0.00    +0.000 C 
ATOM     39  C   UNL     1       5.675  -4.776   0.000  0.00  0.00    +0.000 C 
BRANCH  39  41
ATOM     40  O   UNL     1       4.246  -4.776   0.000  0.00  0.00    +0.000 OA
ATOM     41  C   UNL     1       4.960  -5.188   0.000  0.00  0.00    +0.000 C 
ENDBRANCH  39  41
ENDBRANCH  30  35
ENDBRANCH  24  30
ENDBRANCH  20  27
ENDBRANCH   4  20
BRANCH   8  42
ATOM     42  O   UNL     1       5.665   3.531   0.000  0.00  0.00    +0.000 OA
BRANCH  42  51
ATOM     43  O   UNL     1       4.236   3.537   0.000  0.00  0.00    +0.000 OA
ATOM     44  O   UNL     1       4.245   6.012   0.000  0.00  0.00    +0.000 OA
ATOM     45  O   UNL     1       2.813   5.192   0.000  0.00  0.00    +0.000 OA
ATOM     46  O   UNL     1       5.671   5.181   0.000  0.00  0.00    +0.000 OA
ATOM     47  C   UNL     1       4.242   5.187   0.000  0.00  0.00    +0.000 C 
ATOM     48  C   UNL     1       3.526   4.777   0.000  0.00  0.00    +0.000 C 
ATOM     49  C   UNL     1       4.955   4.771   0.000  0.00  0.00    +0.000 C 
ATOM     50  C   UNL     1       3.523   3.952   0.000  0.00  0.00    +0.000 C 
ATOM     51  C   UNL     1       4.952   3.946   0.000  0.00  0.00    +0.000 C 
BRANCH  50  53
ATOM     52  O   UNL     1       2.094   3.958   0.000  0.00  0.00    +0.000 OA
ATOM     53  C   UNL     1       2.807   3.542   0.000  0.00  0.00    +0.000 C 
ENDBRANCH  50  53
ENDBRANCH  42  51
ENDBRANCH   8  42
BRANCH  10  54
ATOM     54  C   UNL     1       7.122   2.675   0.000  0.00  0.00    +0.000 C 
BRANCH  54  55
ATOM     55  C   UNL     1       7.131   3.500   0.000  0.00  0.00    +0.000 C 
ATOM     56  C   UNL     1       7.850   3.904   0.000  0.00  0.00    +0.000 C 
ATOM     57  C   UNL     1       7.860   4.729   0.000  0.00  0.00    +0.000 C 
ATOM     58  C   UNL     1       8.560   3.483   0.000  0.00  0.00    +0.000 C 
ENDBRANCH  54  55
ENDBRANCH  10  54
TORSDOF 11
