REMARK  Name = 44258115
REMARK  8 active torsions:
REMARK  status: ('A' for Active; 'I' for Inactive)
REMARK    1  A    between atoms: O_1  and  C_18
REMARK    2  A    between atoms: O_1  and  C_19
REMARK    3  A    between atoms: O_3  and  C_16
REMARK    4  A    between atoms: O_3  and  C_26
REMARK    5  A    between atoms: O_6  and  C_22
REMARK    6  A    between atoms: O_6  and  C_27
REMARK    7  A    between atoms: C_16  and  C_23
REMARK    8  A    between atoms: C_35  and  C_37
REMARK                            x       y       z     vdW  Elec       q    Type
REMARK                         _______ _______ _______ _____ _____    ______ ____
ROOT
ATOM      1  O   UNL     1       6.820   0.659   0.000  0.00  0.00    +0.000 OA
ENDROOT
BRANCH   1   5
ATOM      2  O   UNL     1       9.732   0.679   0.000  0.00  0.00    +0.000 OA
ATOM      3  O   UNL     1       8.290   3.182   0.000  0.00  0.00    +0.000 OA
ATOM      4  O   UNL     1       9.732   3.154   0.000  0.00  0.00    +0.000 OA
ATOM      5  C   UNL     1       7.533   1.074   0.000  0.00  0.00    +0.000 A 
ATOM      6  C   UNL     1       8.280   0.650   0.000  0.00  0.00    +0.000 A 
ATOM      7  C   UNL     1       7.533   1.933   0.000  0.00  0.00    +0.000 A 
ATOM      8  C   UNL     1       9.018   1.091   0.000  0.00  0.00    +0.000 A 
ATOM      9  C   UNL     1       8.280   2.357   0.000  0.00  0.00    +0.000 A 
ATOM     10  C   UNL     1       9.018   1.916   0.000  0.00  0.00    +0.000 A 
ATOM     11  C   UNL     1       9.732   2.329   0.000  0.00  0.00    +0.000 A 
ATOM     12  C   UNL     1      10.447   1.091   0.000  0.00  0.00    +0.000 A 
ATOM     13  C   UNL     1      10.447   1.916   0.000  0.00  0.00    +0.000 A 
BRANCH  12  16
ATOM     14  O   UNL     1      11.876  -1.384   0.000  0.00  0.00    +0.000 OA
ATOM     15  O   UNL     1      13.305  -0.559   0.000  0.00  0.00    +0.000 OA
ATOM     16  C   UNL     1      11.161   0.679   0.000  0.00  0.00    +0.000 A 
ATOM     17  C   UNL     1      11.161  -0.146   0.000  0.00  0.00    +0.000 A 
ATOM     18  C   UNL     1      11.876   1.091   0.000  0.00  0.00    +0.000 A 
ATOM     19  C   UNL     1      11.876  -0.559   0.000  0.00  0.00    +0.000 A 
ATOM     20  C   UNL     1      12.590   0.679   0.000  0.00  0.00    +0.000 A 
ATOM     21  C   UNL     1      12.590  -0.146   0.000  0.00  0.00    +0.000 A 
ENDBRANCH  12  16
ENDBRANCH   1   5
BRANCH   1  27
ATOM     22  O   UNL     1       6.101   1.893   0.000  0.00  0.00    +0.000 OA
ATOM     23  O   UNL     1       3.962   0.648   0.000  0.00  0.00    +0.000 OA
ATOM     24  O   UNL     1       3.955   2.298   0.000  0.00  0.00    +0.000 OA
ATOM     25  C   UNL     1       5.391   0.653   0.000  0.00  0.00    +0.000 C 
ATOM     26  C   UNL     1       4.675   1.063   0.000  0.00  0.00    +0.000 C 
ATOM     27  C   UNL     1       6.104   1.069   0.000  0.00  0.00    +0.000 C 
ATOM     28  C   UNL     1       4.672   1.888   0.000  0.00  0.00    +0.000 C 
ATOM     29  C   UNL     1       5.385   2.303   0.000  0.00  0.00    +0.000 C 
BRANCH  25  30
ATOM     30  O   UNL     1       5.394  -0.172   0.000  0.00  0.00    +0.000 OA
BRANCH  30  35
ATOM     31  O   UNL     1       3.926  -0.254   0.000  0.00  0.00    +0.000 OA
ATOM     32  O   UNL     1       5.213  -1.958   0.000  0.00  0.00    +0.000 OA
ATOM     33  C   UNL     1       3.792  -1.582   0.000  0.00  0.00    +0.000 C 
ATOM     34  C   UNL     1       4.598  -1.408   0.000  0.00  0.00    +0.000 C 
ATOM     35  C   UNL     1       4.681  -0.587   0.000  0.00  0.00    +0.000 C 
ATOM     36  C   UNL     1       3.377  -0.870   0.000  0.00  0.00    +0.000 C 
BRANCH  33  38
ATOM     37  O   UNL     1       3.355  -2.943   0.000  0.00  0.00    +0.000 OA
ATOM     38  C   UNL     1       3.966  -2.389   0.000  0.00  0.00    +0.000 C 
ENDBRANCH  33  38
BRANCH  33  39
ATOM     39  O   UNL     1       3.079  -1.998   0.000  0.00  0.00    +0.000 OA
BRANCH  39  41
ATOM     40  O   UNL     1       2.360  -0.763   0.000  0.00  0.00    +0.000 OA
ATOM     41  C   UNL     1       2.363  -1.588   0.000  0.00  0.00    +0.000 C 
ATOM     42  C   UNL     1       1.650  -2.003   0.000  0.00  0.00    +0.000 C 
ENDBRANCH  39  41
ENDBRANCH  33  39
ENDBRANCH  30  35
ENDBRANCH  25  30
ENDBRANCH   1  27
TORSDOF 8
