REMARK  Name = 74977917
REMARK  7 active torsions:
REMARK  status: ('A' for Active; 'I' for Inactive)
REMARK    1  A    between atoms: S_1  and  O_3
REMARK    2  A    between atoms: O_3  and  C_18
REMARK    3  A    between atoms: O_4  and  C_20
REMARK    4  A    between atoms: O_4  and  C_22
REMARK    5  A    between atoms: O_15  and  C_36
REMARK    6  A    between atoms: C_19  and  C_21
REMARK    7  A    between atoms: C_29  and  C_31
REMARK                            x       y       z     vdW  Elec       q    Type
REMARK                         _______ _______ _______ _____ _____    ______ ____
ROOT
ATOM      1  O   UNL     1       7.117   0.796   0.000  0.00  0.00    +0.000 OA
ATOM      2  O   UNL     1       4.236   0.825   0.000  0.00  0.00    +0.000 OA
ATOM      3  O   UNL     1       5.665   3.300   0.000  0.00  0.00    +0.000 OA
ATOM      4  O   UNL     1       7.108   3.329   0.000  0.00  0.00    +0.000 OA
ATOM      5  C   UNL     1       5.665   0.825   0.000  0.00  0.00    +0.000 A 
ATOM      6  C   UNL     1       6.380   1.238   0.000  0.00  0.00    +0.000 A 
ATOM      7  C   UNL     1       4.951   1.238   0.000  0.00  0.00    +0.000 A 
ATOM      8  C   UNL     1       6.380   2.062   0.000  0.00  0.00    +0.000 A 
ATOM      9  C   UNL     1       4.951   2.062   0.000  0.00  0.00    +0.000 A 
ATOM     10  C   UNL     1       5.665   2.475   0.000  0.00  0.00    +0.000 A 
ATOM     11  C   UNL     1       7.117   2.504   0.000  0.00  0.00    +0.000 A 
ATOM     12  C   UNL     1       7.865   1.220   0.000  0.00  0.00    +0.000 A 
ATOM     13  C   UNL     1       7.865   2.080   0.000  0.00  0.00    +0.000 A 
ENDROOT
BRANCH  12  14
ATOM     14  C   UNL     1       8.578   0.805   0.000  0.00  0.00    +0.000 A 
ATOM     15  C   UNL     1       9.294   1.215   0.000  0.00  0.00    +0.000 A 
ATOM     16  C   UNL     1       8.575  -0.020   0.000  0.00  0.00    +0.000 A 
ATOM     17  C   UNL     1      10.007   0.800   0.000  0.00  0.00    +0.000 A 
ATOM     18  C   UNL     1       9.287  -0.435   0.000  0.00  0.00    +0.000 A 
ATOM     19  C   UNL     1      10.004  -0.025   0.000  0.00  0.00    +0.000 A 
BRANCH  19  20
ATOM     20  O   UNL     1      10.716  -0.441   0.000  0.00  0.00    +0.000 OA
ATOM     21  C   UNL     1      11.432  -0.031   0.000  0.00  0.00    +0.000 C 
ENDBRANCH  19  20
ENDBRANCH  12  14
BRANCH   5  22
ATOM     22  O   UNL     1       5.665   0.000   0.000  0.00  0.00    +0.000 OA
BRANCH  22  30
ATOM     23  O   UNL     1       4.236   0.000   0.000  0.00  0.00    +0.000 OA
ATOM     24  O   UNL     1       4.236  -2.475   0.000  0.00  0.00    +0.000 OA
ATOM     25  O   UNL     1       2.808  -1.650   0.000  0.00  0.00    +0.000 OA
ATOM     26  C   UNL     1       4.236  -1.650   0.000  0.00  0.00    +0.000 C 
ATOM     27  C   UNL     1       3.522  -1.238   0.000  0.00  0.00    +0.000 C 
ATOM     28  C   UNL     1       4.951  -1.238   0.000  0.00  0.00    +0.000 C 
ATOM     29  C   UNL     1       3.522  -0.412   0.000  0.00  0.00    +0.000 C 
ATOM     30  C   UNL     1       4.951  -0.412   0.000  0.00  0.00    +0.000 C 
BRANCH  29  32
ATOM     31  O   UNL     1       2.093  -0.412   0.000  0.00  0.00    +0.000 OA
ATOM     32  C   UNL     1       2.808   0.000   0.000  0.00  0.00    +0.000 C 
ENDBRANCH  29  32
BRANCH  28  33
ATOM     33  O   UNL     1       5.665  -1.650   0.000  0.00  0.00    +0.000 OA
BRANCH  33  34
ATOM     34  S   UNL     1       5.665  -2.475   0.000  0.00  0.00    +0.000 S 
ATOM     35  O   UNL     1       5.665  -3.300   0.000  0.00  0.00    +0.000 OA
ATOM     36  O   UNL     1       6.490  -2.475   0.000  0.00  0.00    +0.000 OA
ATOM     37  O   UNL     1       4.840  -2.475   0.000  0.00  0.00    +0.000 OA
ENDBRANCH  33  34
ENDBRANCH  28  33
ENDBRANCH  22  30
ENDBRANCH   5  22
TORSDOF 7
