REMARK  Name = 14583401
REMARK  6 active torsions:
REMARK  status: ('A' for Active; 'I' for Inactive)
REMARK    1  A    between atoms: O_2  and  C_12
REMARK    2  A    between atoms: O_2  and  C_13
REMARK    3  A    between atoms: O_3  and  C_17
REMARK    4  A    between atoms: C_8  and  C_9
REMARK    5  A    between atoms: C_8  and  C_13
REMARK    6  A    between atoms: C_15  and  C_22
REMARK                            x       y       z     vdW  Elec       q    Type
REMARK                         _______ _______ _______ _____ _____    ______ ____
ROOT
ATOM      1  O   UNL     1       5.006   0.290   0.000  0.00  0.00    +0.000 OA
ATOM      2  O   UNL     1       3.564   2.794   0.000  0.00  0.00    +0.000 OA
ATOM      3  O   UNL     1       2.094   0.270   0.000  0.00  0.00    +0.000 OA
ATOM      4  O   UNL     1       5.006   2.765   0.000  0.00  0.00    +0.000 OA
ATOM      5  C   UNL     1       4.292   0.703   0.000  0.00  0.00    +0.000 A 
ATOM      6  C   UNL     1       4.292   1.528   0.000  0.00  0.00    +0.000 A 
ATOM      7  C   UNL     1       3.554   0.262   0.000  0.00  0.00    +0.000 A 
ATOM      8  C   UNL     1       5.721   0.703   0.000  0.00  0.00    +0.000 A 
ATOM      9  C   UNL     1       5.006   1.940   0.000  0.00  0.00    +0.000 A 
ATOM     10  C   UNL     1       5.721   1.528   0.000  0.00  0.00    +0.000 A 
ATOM     11  C   UNL     1       3.554   1.969   0.000  0.00  0.00    +0.000 A 
ATOM     12  C   UNL     1       2.807   0.686   0.000  0.00  0.00    +0.000 A 
ATOM     13  C   UNL     1       2.807   1.545   0.000  0.00  0.00    +0.000 A 
ENDROOT
BRANCH   8  14
ATOM     14  C   UNL     1       6.435   0.290   0.000  0.00  0.00    +0.000 A 
ATOM     15  C   UNL     1       7.150   0.703   0.000  0.00  0.00    +0.000 A 
ATOM     16  C   UNL     1       6.435  -0.535   0.000  0.00  0.00    +0.000 A 
ATOM     17  C   UNL     1       7.864   0.290   0.000  0.00  0.00    +0.000 A 
ATOM     18  C   UNL     1       7.150  -0.947   0.000  0.00  0.00    +0.000 A 
ATOM     19  C   UNL     1       7.864  -0.535   0.000  0.00  0.00    +0.000 A 
ENDBRANCH   8  14
BRANCH  10  20
ATOM     20  O   UNL     1       6.435   1.940   0.000  0.00  0.00    +0.000 OA
ATOM     21  C   UNL     1       6.435   2.765   0.000  0.00  0.00    +0.000 C 
ENDBRANCH  10  20
BRANCH   7  22
ATOM     22  O   UNL     1       3.564  -0.563   0.000  0.00  0.00    +0.000 OA
BRANCH  22  24
ATOM     23  O   UNL     1       2.135  -0.580   0.000  0.00  0.00    +0.000 OA
ATOM     24  C   UNL     1       2.854  -0.984   0.000  0.00  0.00    +0.000 C 
BRANCH  24  25
ATOM     25  C   UNL     1       2.864  -1.809   0.000  0.00  0.00    +0.000 C 
ATOM     26  C   UNL     1       3.583  -2.213   0.000  0.00  0.00    +0.000 C 
BRANCH  25  27
ATOM     27  C   UNL     1       2.154  -2.230   0.000  0.00  0.00    +0.000 C 
ATOM     28  C   UNL     1       2.164  -3.055   0.000  0.00  0.00    +0.000 C 
ENDBRANCH  25  27
ENDBRANCH  24  25
ENDBRANCH  22  24
ENDBRANCH   7  22
TORSDOF 6
