REMARK  Name = 42607607
REMARK  12 active torsions:
REMARK  status: ('A' for Active; 'I' for Inactive)
REMARK    1  A    between atoms: O_3  and  C_27
REMARK    2  A    between atoms: O_3  and  C_31
REMARK    3  A    between atoms: O_5  and  C_30
REMARK    4  A    between atoms: O_5  and  C_39
REMARK    5  A    between atoms: O_12  and  C_36
REMARK    6  A    between atoms: O_12  and  C_40
REMARK    7  A    between atoms: C_21  and  C_31
REMARK    8  A    between atoms: C_29  and  C_37
REMARK    9  A    between atoms: C_35  and  C_38
REMARK   10  A    between atoms: C_43  and  C_45
REMARK   11  A    between atoms: C_45  and  C_46
REMARK   12  A    between atoms: C_47  and  C_48
REMARK                            x       y       z     vdW  Elec       q    Type
REMARK                         _______ _______ _______ _____ _____    ______ ____
ROOT
ATOM      1  O   UNL     1       6.658   2.269   0.000  0.00  0.00    +0.000 OA
ATOM      2  C   UNL     1       7.372   0.206   0.000  0.00  0.00    +0.000 A 
ATOM      3  C   UNL     1       5.943   0.206   0.000  0.00  0.00    +0.000 A 
ATOM      4  C   UNL     1       6.658  -0.206   0.000  0.00  0.00    +0.000 A 
ATOM      5  C   UNL     1       7.372   1.031   0.000  0.00  0.00    +0.000 A 
ATOM      6  C   UNL     1       5.943   1.031   0.000  0.00  0.00    +0.000 A 
ATOM      7  C   UNL     1       6.658   1.444   0.000  0.00  0.00    +0.000 A 
ENDROOT
BRANCH   6   9
ATOM      8  O   UNL     1       4.416   1.300   0.000  0.00  0.00    +0.000 OA
ATOM      9  C   UNL     1       5.229   1.444   0.000  0.00  0.00    +0.000 C 
BRANCH   9  10
ATOM     10  C   UNL     1       5.229   2.269   0.000  0.00  0.00    +0.000 C 
ATOM     11  C   UNL     1       4.514   2.681   0.000  0.00  0.00    +0.000 C 
BRANCH  11  13
ATOM     12  O   UNL     1       4.514   5.981   0.000  0.00  0.00    +0.000 OA
ATOM     13  C   UNL     1       4.514   3.506   0.000  0.00  0.00    +0.000 A 
ATOM     14  C   UNL     1       3.800   3.919   0.000  0.00  0.00    +0.000 A 
ATOM     15  C   UNL     1       5.229   3.919   0.000  0.00  0.00    +0.000 A 
ATOM     16  C   UNL     1       3.800   4.744   0.000  0.00  0.00    +0.000 A 
ATOM     17  C   UNL     1       5.229   4.744   0.000  0.00  0.00    +0.000 A 
ATOM     18  C   UNL     1       4.514   5.156   0.000  0.00  0.00    +0.000 A 
ENDBRANCH  11  13
ENDBRANCH   9  10
ENDBRANCH   6   9
BRANCH   2  19
ATOM     19  O   UNL     1       8.087  -0.206   0.000  0.00  0.00    +0.000 OA
BRANCH  19  28
ATOM     20  O   UNL     1       7.372  -1.444   0.000  0.00  0.00    +0.000 OA
ATOM     21  O   UNL     1       8.087  -3.506   0.000  0.00  0.00    +0.000 OA
ATOM     22  O   UNL     1       9.515  -2.681   0.000  0.00  0.00    +0.000 OA
ATOM     23  O   UNL     1       9.515  -1.031   0.000  0.00  0.00    +0.000 OA
ATOM     24  C   UNL     1       7.372  -2.269   0.000  0.00  0.00    +0.000 C 
ATOM     25  C   UNL     1       8.087  -2.681   0.000  0.00  0.00    +0.000 C 
ATOM     26  C   UNL     1       8.801  -2.269   0.000  0.00  0.00    +0.000 C 
ATOM     27  C   UNL     1       8.801  -1.444   0.000  0.00  0.00    +0.000 C 
ATOM     28  C   UNL     1       8.087  -1.031   0.000  0.00  0.00    +0.000 C 
BRANCH  24  29
ATOM     29  C   UNL     1       6.658  -2.681   0.000  0.00  0.00    +0.000 C 
BRANCH  29  30
ATOM     30  O   UNL     1       6.658  -3.506   0.000  0.00  0.00    +0.000 OA
BRANCH  30  37
ATOM     31  O   UNL     1       5.229  -3.506   0.000  0.00  0.00    +0.000 OA
ATOM     32  O   UNL     1       6.658  -5.156   0.000  0.00  0.00    +0.000 OA
ATOM     33  O   UNL     1       5.229  -5.981   0.000  0.00  0.00    +0.000 OA
ATOM     34  O   UNL     1       3.800  -5.156   0.000  0.00  0.00    +0.000 OA
ATOM     35  C   UNL     1       5.943  -4.744   0.000  0.00  0.00    +0.000 C 
ATOM     36  C   UNL     1       5.229  -5.156   0.000  0.00  0.00    +0.000 C 
ATOM     37  C   UNL     1       5.943  -3.919   0.000  0.00  0.00    +0.000 C 
ATOM     38  C   UNL     1       4.514  -4.744   0.000  0.00  0.00    +0.000 C 
ATOM     39  C   UNL     1       4.514  -3.919   0.000  0.00  0.00    +0.000 C 
BRANCH  39  41
ATOM     40  O   UNL     1       3.800  -2.681   0.000  0.00  0.00    +0.000 OA
ATOM     41  C   UNL     1       3.800  -3.506   0.000  0.00  0.00    +0.000 C 
ENDBRANCH  39  41
ENDBRANCH  30  37
ENDBRANCH  29  30
ENDBRANCH  24  29
ENDBRANCH  19  28
ENDBRANCH   2  19
BRANCH   3  42
ATOM     42  O   UNL     1       5.229  -0.206   0.000  0.00  0.00    +0.000 OA
BRANCH  42  51
ATOM     43  O   UNL     1       4.134   0.712   0.000  0.00  0.00    +0.000 OA
ATOM     44  O   UNL     1       2.543  -1.184   0.000  0.00  0.00    +0.000 OA
ATOM     45  O   UNL     1       1.979   0.367   0.000  0.00  0.00    +0.000 OA
ATOM     46  O   UNL     1       4.168  -1.470   0.000  0.00  0.00    +0.000 OA
ATOM     47  C   UNL     1       3.074  -0.552   0.000  0.00  0.00    +0.000 C 
ATOM     48  C   UNL     1       2.791   0.224   0.000  0.00  0.00    +0.000 C 
ATOM     49  C   UNL     1       3.886  -0.695   0.000  0.00  0.00    +0.000 C 
ATOM     50  C   UNL     1       3.321   0.856   0.000  0.00  0.00    +0.000 C 
ATOM     51  C   UNL     1       4.416  -0.063   0.000  0.00  0.00    +0.000 C 
BRANCH  50  53
ATOM     52  O   UNL     1       2.227   1.774   0.000  0.00  0.00    +0.000 OA
ATOM     53  C   UNL     1       3.039   1.631   0.000  0.00  0.00    +0.000 C 
ENDBRANCH  50  53
ENDBRANCH  42  51
ENDBRANCH   3  42
TORSDOF 12
