REMARK  Name = 44258468
REMARK  9 active torsions:
REMARK  status: ('A' for Active; 'I' for Inactive)
REMARK    1  A    between atoms: O_2  and  C_18
REMARK    2  A    between atoms: O_2  and  C_20
REMARK    3  A    between atoms: O_6  and  C_19
REMARK    4  A    between atoms: O_6  and  C_26
REMARK    5  A    between atoms: O_7  and  C_21
REMARK    6  A    between atoms: C_16  and  C_19
REMARK    7  A    between atoms: C_26  and  C_28
REMARK    8  A    between atoms: C_29  and  C_31
REMARK    9  A    between atoms: C_33  and  C_36
REMARK                            x       y       z     vdW  Elec       q    Type
REMARK                         _______ _______ _______ _____ _____    ______ ____
ROOT
ATOM      1  O   UNL     1      10.667  -1.380   0.000  0.00  0.00    +0.000 OA
ENDROOT
BRANCH   1   5
ATOM      2  O   UNL     1      12.132   1.101   0.000  0.00  0.00    +0.000 OA
ATOM      3  O   UNL     1       9.238   1.095   0.000  0.00  0.00    +0.000 OA
ATOM      4  O   UNL     1       9.934   2.359   0.000  0.00  0.00    +0.000 OA
ATOM      5  C   UNL     1      10.667  -0.555   0.000  0.00  0.00    +0.000 A 
ATOM      6  C   UNL     1       9.952  -0.142   0.000  0.00  0.00    +0.000 A 
ATOM      7  C   UNL     1      11.381  -0.142   0.000  0.00  0.00    +0.000 A 
ATOM      8  C   UNL     1      11.381   0.683   0.000  0.00  0.00    +0.000 A 
ATOM      9  C   UNL     1       9.952   0.683   0.000  0.00  0.00    +0.000 A 
ATOM     10  C   UNL     1      10.667   1.095   0.000  0.00  0.00    +0.000 A 
ATOM     11  C   UNL     1      10.653   1.954   0.000  0.00  0.00    +0.000 A 
ATOM     12  C   UNL     1      12.139   1.960   0.000  0.00  0.00    +0.000 A 
ATOM     13  C   UNL     1      11.394   2.390   0.000  0.00  0.00    +0.000 A 
BRANCH  12  15
ATOM     14  O   UNL     1      15.003   3.599   0.000  0.00  0.00    +0.000 OA
ATOM     15  C   UNL     1      12.854   2.370   0.000  0.00  0.00    +0.000 A 
ATOM     16  C   UNL     1      12.858   3.195   0.000  0.00  0.00    +0.000 A 
ATOM     17  C   UNL     1      13.567   1.955   0.000  0.00  0.00    +0.000 A 
ATOM     18  C   UNL     1      13.574   3.605   0.000  0.00  0.00    +0.000 A 
ATOM     19  C   UNL     1      14.284   2.364   0.000  0.00  0.00    +0.000 A 
ATOM     20  C   UNL     1      14.287   3.189   0.000  0.00  0.00    +0.000 A 
ENDBRANCH  12  15
BRANCH   6  21
ATOM     21  O   UNL     1       9.238  -0.555   0.000  0.00  0.00    +0.000 OA
ATOM     22  C   UNL     1       8.523  -0.142   0.000  0.00  0.00    +0.000 C 
ENDBRANCH   6  21
ENDBRANCH   1   5
BRANCH   1  31
ATOM     23  O   UNL     1       9.238  -1.380   0.000  0.00  0.00    +0.000 OA
ATOM     24  O   UNL     1       7.809  -3.030   0.000  0.00  0.00    +0.000 OA
ATOM     25  O   UNL     1       9.238  -3.855   0.000  0.00  0.00    +0.000 OA
ATOM     26  O   UNL     1      10.667  -3.030   0.000  0.00  0.00    +0.000 OA
ATOM     27  C   UNL     1       8.523  -2.617   0.000  0.00  0.00    +0.000 C 
ATOM     28  C   UNL     1       9.238  -3.030   0.000  0.00  0.00    +0.000 C 
ATOM     29  C   UNL     1       8.523  -1.792   0.000  0.00  0.00    +0.000 C 
ATOM     30  C   UNL     1       9.952  -2.617   0.000  0.00  0.00    +0.000 C 
ATOM     31  C   UNL     1       9.952  -1.792   0.000  0.00  0.00    +0.000 C 
BRANCH  29  32
ATOM     32  C   UNL     1       7.809  -1.380   0.000  0.00  0.00    +0.000 C 
BRANCH  32  33
ATOM     33  O   UNL     1       7.094  -1.792   0.000  0.00  0.00    +0.000 OA
BRANCH  33  35
ATOM     34  O   UNL     1       6.380  -0.555   0.000  0.00  0.00    +0.000 OA
ATOM     35  C   UNL     1       6.380  -1.380   0.000  0.00  0.00    +0.000 C 
BRANCH  35  36
ATOM     36  C   UNL     1       5.665  -1.792   0.000  0.00  0.00    +0.000 C 
ATOM     37  C   UNL     1       4.951  -1.380   0.000  0.00  0.00    +0.000 C 
BRANCH  37  39
ATOM     38  O   UNL     1       2.093  -3.030   0.000  0.00  0.00    +0.000 OA
ATOM     39  C   UNL     1       4.236  -1.792   0.000  0.00  0.00    +0.000 A 
ATOM     40  C   UNL     1       4.236  -2.617   0.000  0.00  0.00    +0.000 A 
ATOM     41  C   UNL     1       3.522  -1.380   0.000  0.00  0.00    +0.000 A 
ATOM     42  C   UNL     1       3.522  -3.030   0.000  0.00  0.00    +0.000 A 
ATOM     43  C   UNL     1       2.808  -1.792   0.000  0.00  0.00    +0.000 A 
ATOM     44  C   UNL     1       2.808  -2.617   0.000  0.00  0.00    +0.000 A 
ENDBRANCH  37  39
ENDBRANCH  35  36
ENDBRANCH  33  35
ENDBRANCH  32  33
ENDBRANCH  29  32
ENDBRANCH   1  31
TORSDOF 9
