REMARK  Name = 44259353
REMARK  11 active torsions:
REMARK  status: ('A' for Active; 'I' for Inactive)
REMARK    1  A    between atoms: O_3  and  C_25
REMARK    2  A    between atoms: O_3  and  C_28
REMARK    3  A    between atoms: O_5  and  C_24
REMARK    4  A    between atoms: O_5  and  C_32
REMARK    5  A    between atoms: O_7  and  C_29
REMARK    6  A    between atoms: O_7  and  C_31
REMARK    7  A    between atoms: O_16  and  C_46
REMARK    8  A    between atoms: C_19  and  C_28
REMARK    9  A    between atoms: C_32  and  C_36
REMARK   10  A    between atoms: C_33  and  C_37
REMARK   11  A    between atoms: C_40  and  C_47
REMARK                            x       y       z     vdW  Elec       q    Type
REMARK                         _______ _______ _______ _____ _____    ______ ____
ROOT
ATOM      1  O   UNL     1      10.667  -0.206   0.000  0.00  0.00    +0.000 OA
ATOM      2  O   UNL     1      11.381  -2.269   0.000  0.00  0.00    +0.000 OA
ATOM      3  O   UNL     1      12.810  -1.444   0.000  0.00  0.00    +0.000 OA
ATOM      4  O   UNL     1      12.810   0.206   0.000  0.00  0.00    +0.000 OA
ATOM      5  C   UNL     1      10.667  -1.031   0.000  0.00  0.00    +0.000 C 
ATOM      6  C   UNL     1      11.381  -1.444   0.000  0.00  0.00    +0.000 C 
ATOM      7  C   UNL     1      12.096  -1.031   0.000  0.00  0.00    +0.000 C 
ATOM      8  C   UNL     1      12.096  -0.206   0.000  0.00  0.00    +0.000 C 
ATOM      9  C   UNL     1      11.381   0.206   0.000  0.00  0.00    +0.000 C 
ENDROOT
BRANCH   9  10
ATOM     10  O   UNL     1      11.381   1.031   0.000  0.00  0.00    +0.000 OA
BRANCH  10  15
ATOM     11  O   UNL     1       9.952   2.681   0.000  0.00  0.00    +0.000 OA
ATOM     12  O   UNL     1       9.952   0.206   0.000  0.00  0.00    +0.000 OA
ATOM     13  O   UNL     1       8.510   0.178   0.000  0.00  0.00    +0.000 OA
ATOM     14  O   UNL     1       7.040   2.701   0.000  0.00  0.00    +0.000 OA
ATOM     15  C   UNL     1      10.667   1.444   0.000  0.00  0.00    +0.000 A 
ATOM     16  C   UNL     1      10.667   2.269   0.000  0.00  0.00    +0.000 A 
ATOM     17  C   UNL     1       9.952   1.031   0.000  0.00  0.00    +0.000 A 
ATOM     18  C   UNL     1       9.238   1.444   0.000  0.00  0.00    +0.000 A 
ATOM     19  C   UNL     1       9.238   2.269   0.000  0.00  0.00    +0.000 A 
ATOM     20  C   UNL     1       8.500   1.003   0.000  0.00  0.00    +0.000 A 
ATOM     21  C   UNL     1       8.500   2.710   0.000  0.00  0.00    +0.000 A 
ATOM     22  C   UNL     1       7.753   1.427   0.000  0.00  0.00    +0.000 A 
ATOM     23  C   UNL     1       7.753   2.286   0.000  0.00  0.00    +0.000 A 
BRANCH  16  25
ATOM     24  O   UNL     1      13.524   3.919   0.000  0.00  0.00    +0.000 OA
ATOM     25  C   UNL     1      11.381   2.681   0.000  0.00  0.00    +0.000 A 
ATOM     26  C   UNL     1      11.381   3.506   0.000  0.00  0.00    +0.000 A 
ATOM     27  C   UNL     1      12.096   2.269   0.000  0.00  0.00    +0.000 A 
ATOM     28  C   UNL     1      12.096   3.919   0.000  0.00  0.00    +0.000 A 
ATOM     29  C   UNL     1      12.810   2.681   0.000  0.00  0.00    +0.000 A 
ATOM     30  C   UNL     1      12.810   3.506   0.000  0.00  0.00    +0.000 A 
BRANCH  28  31
ATOM     31  O   UNL     1      12.096   4.744   0.000  0.00  0.00    +0.000 OA
ATOM     32  C   UNL     1      11.381   5.156   0.000  0.00  0.00    +0.000 C 
ENDBRANCH  28  31
ENDBRANCH  16  25
ENDBRANCH  10  15
ENDBRANCH   9  10
BRANCH   5  33
ATOM     33  C   UNL     1       9.952  -1.444   0.000  0.00  0.00    +0.000 C 
BRANCH  33  34
ATOM     34  O   UNL     1       9.952  -2.269   0.000  0.00  0.00    +0.000 OA
BRANCH  34  41
ATOM     35  O   UNL     1       8.523  -2.269   0.000  0.00  0.00    +0.000 OA
ATOM     36  O   UNL     1       8.523  -4.744   0.000  0.00  0.00    +0.000 OA
ATOM     37  O   UNL     1       9.952  -3.919   0.000  0.00  0.00    +0.000 OA
ATOM     38  C   UNL     1       8.523  -3.919   0.000  0.00  0.00    +0.000 C 
ATOM     39  C   UNL     1       9.238  -3.506   0.000  0.00  0.00    +0.000 C 
ATOM     40  C   UNL     1       7.809  -3.506   0.000  0.00  0.00    +0.000 C 
ATOM     41  C   UNL     1       9.238  -2.681   0.000  0.00  0.00    +0.000 C 
ATOM     42  C   UNL     1       7.809  -2.681   0.000  0.00  0.00    +0.000 C 
ATOM     43  C   UNL     1       7.094  -2.269   0.000  0.00  0.00    +0.000 C 
BRANCH  40  44
ATOM     44  O   UNL     1       7.094  -3.919   0.000  0.00  0.00    +0.000 OA
BRANCH  44  46
ATOM     45  O   UNL     1       6.380  -2.681   0.000  0.00  0.00    +0.000 OA
ATOM     46  C   UNL     1       6.380  -3.506   0.000  0.00  0.00    +0.000 C 
BRANCH  46  47
ATOM     47  C   UNL     1       5.665  -3.919   0.000  0.00  0.00    +0.000 C 
ATOM     48  C   UNL     1       4.951  -3.506   0.000  0.00  0.00    +0.000 C 
BRANCH  48  50
ATOM     49  O   UNL     1       2.093  -5.156   0.000  0.00  0.00    +0.000 OA
ATOM     50  C   UNL     1       4.236  -3.919   0.000  0.00  0.00    +0.000 A 
ATOM     51  C   UNL     1       4.236  -4.744   0.000  0.00  0.00    +0.000 A 
ATOM     52  C   UNL     1       3.522  -3.506   0.000  0.00  0.00    +0.000 A 
ATOM     53  C   UNL     1       3.522  -5.156   0.000  0.00  0.00    +0.000 A 
ATOM     54  C   UNL     1       2.808  -3.919   0.000  0.00  0.00    +0.000 A 
ATOM     55  C   UNL     1       2.808  -4.744   0.000  0.00  0.00    +0.000 A 
ENDBRANCH  48  50
ENDBRANCH  46  47
ENDBRANCH  44  46
ENDBRANCH  40  44
ENDBRANCH  34  41
ENDBRANCH  33  34
ENDBRANCH   5  33
TORSDOF 11
