REMARK  Name = 44259651
REMARK  5 active torsions:
REMARK  status: ('A' for Active; 'I' for Inactive)
REMARK    1  A    between atoms: O_2  and  C_11
REMARK    2  A    between atoms: O_3  and  C_19
REMARK    3  A    between atoms: O_3  and  C_22
REMARK    4  A    between atoms: C_8  and  C_10
REMARK    5  A    between atoms: C_22  and  C_23
REMARK                            x       y       z     vdW  Elec       q    Type
REMARK                         _______ _______ _______ _____ _____    ______ ____
ROOT
ATOM      1  O   UNL     1       5.006   0.474   0.000  0.00  0.00    +0.000 OA
ATOM      2  O   UNL     1       3.564   2.978   0.000  0.00  0.00    +0.000 OA
ATOM      3  O   UNL     1       5.006   2.949   0.000  0.00  0.00    +0.000 OA
ATOM      4  O   UNL     1       2.094   0.454   0.000  0.00  0.00    +0.000 OA
ATOM      5  C   UNL     1       4.292   1.712   0.000  0.00  0.00    +0.000 A 
ATOM      6  C   UNL     1       5.721   0.886   0.000  0.00  0.00    +0.000 A 
ATOM      7  C   UNL     1       4.292   0.886   0.000  0.00  0.00    +0.000 A 
ATOM      8  C   UNL     1       5.721   1.712   0.000  0.00  0.00    +0.000 A 
ATOM      9  C   UNL     1       5.006   2.124   0.000  0.00  0.00    +0.000 A 
ATOM     10  C   UNL     1       3.554   2.153   0.000  0.00  0.00    +0.000 A 
ATOM     11  C   UNL     1       3.554   0.445   0.000  0.00  0.00    +0.000 A 
ATOM     12  C   UNL     1       2.807   0.869   0.000  0.00  0.00    +0.000 A 
ATOM     13  C   UNL     1       2.807   1.729   0.000  0.00  0.00    +0.000 A 
ENDROOT
BRANCH   6  14
ATOM     14  C   UNL     1       6.435   0.474   0.000  0.00  0.00    +0.000 A 
ATOM     15  C   UNL     1       7.150   0.886   0.000  0.00  0.00    +0.000 A 
ATOM     16  C   UNL     1       6.435  -0.351   0.000  0.00  0.00    +0.000 A 
ATOM     17  C   UNL     1       7.864  -0.351   0.000  0.00  0.00    +0.000 A 
ATOM     18  C   UNL     1       7.864   0.474   0.000  0.00  0.00    +0.000 A 
ATOM     19  C   UNL     1       7.150  -0.763   0.000  0.00  0.00    +0.000 A 
BRANCH  17  20
ATOM     20  O   UNL     1       8.579  -0.763   0.000  0.00  0.00    +0.000 OA
BRANCH  20  21
ATOM     21  C   UNL     1       8.579  -1.589   0.000  0.00  0.00    +0.000 C 
BRANCH  21  22
ATOM     22  C   UNL     1       9.293  -2.001   0.000  0.00  0.00    +0.000 C 
ATOM     23  C   UNL     1       9.293  -2.826   0.000  0.00  0.00    +0.000 C 
ATOM     24  C   UNL     1      10.008  -3.239   0.000  0.00  0.00    +0.000 C 
ATOM     25  C   UNL     1       8.579  -3.239   0.000  0.00  0.00    +0.000 C 
ENDBRANCH  21  22
ENDBRANCH  20  21
ENDBRANCH  17  20
ENDBRANCH   6  14
BRANCH   8  26
ATOM     26  O   UNL     1       6.435   2.124   0.000  0.00  0.00    +0.000 OA
ATOM     27  C   UNL     1       6.435   2.949   0.000  0.00  0.00    +0.000 C 
ENDBRANCH   8  26
TORSDOF 5
