REMARK  Name = 44259489
REMARK  11 active torsions:
REMARK  status: ('A' for Active; 'I' for Inactive)
REMARK    1  A    between atoms: O_1  and  C_20
REMARK    2  A    between atoms: O_1  and  C_23
REMARK    3  A    between atoms: O_6  and  C_29
REMARK    4  A    between atoms: O_6  and  C_32
REMARK    5  A    between atoms: O_10  and  C_31
REMARK    6  A    between atoms: O_10  and  C_35
REMARK    7  A    between atoms: O_16  and  C_46
REMARK    8  A    between atoms: O_17  and  C_47
REMARK    9  A    between atoms: C_25  and  C_30
REMARK   10  A    between atoms: C_28  and  C_31
REMARK   11  A    between atoms: C_33  and  C_37
REMARK                            x       y       z     vdW  Elec       q    Type
REMARK                         _______ _______ _______ _____ _____    ______ ____
ROOT
ATOM      1  O   UNL     1       8.080   0.177   0.000  0.00  0.00    +0.000 OA
ENDROOT
BRANCH   1   6
ATOM      2  O   UNL     1       8.795   2.239   0.000  0.00  0.00    +0.000 OA
ATOM      3  O   UNL     1       6.651   1.002   0.000  0.00  0.00    +0.000 OA
ATOM      4  O   UNL     1       5.905   2.237   0.000  0.00  0.00    +0.000 OA
ATOM      5  O   UNL     1       7.356   4.771   0.000  0.00  0.00    +0.000 OA
ATOM      6  C   UNL     1       8.080   1.002   0.000  0.00  0.00    +0.000 A 
ATOM      7  C   UNL     1       8.795   1.414   0.000  0.00  0.00    +0.000 A 
ATOM      8  C   UNL     1       7.366   1.414   0.000  0.00  0.00    +0.000 A 
ATOM      9  C   UNL     1       7.366   2.239   0.000  0.00  0.00    +0.000 A 
ATOM     10  C   UNL     1       8.080   2.652   0.000  0.00  0.00    +0.000 A 
ATOM     11  C   UNL     1       6.615   2.658   0.000  0.00  0.00    +0.000 A 
ATOM     12  C   UNL     1       8.094   3.511   0.000  0.00  0.00    +0.000 A 
ATOM     13  C   UNL     1       6.608   3.517   0.000  0.00  0.00    +0.000 A 
ATOM     14  C   UNL     1       7.353   3.946   0.000  0.00  0.00    +0.000 A 
BRANCH   7  16
ATOM     15  O   UNL     1      11.653  -0.236   0.000  0.00  0.00    +0.000 OA
ATOM     16  C   UNL     1       9.509   1.002   0.000  0.00  0.00    +0.000 A 
ATOM     17  C   UNL     1      10.224   1.414   0.000  0.00  0.00    +0.000 A 
ATOM     18  C   UNL     1       9.509   0.177   0.000  0.00  0.00    +0.000 A 
ATOM     19  C   UNL     1      10.224  -0.236   0.000  0.00  0.00    +0.000 A 
ATOM     20  C   UNL     1      10.938   1.002   0.000  0.00  0.00    +0.000 A 
ATOM     21  C   UNL     1      10.938   0.177   0.000  0.00  0.00    +0.000 A 
BRANCH  19  22
ATOM     22  O   UNL     1      10.224  -1.061   0.000  0.00  0.00    +0.000 OA
ATOM     23  C   UNL     1       9.509  -1.473   0.000  0.00  0.00    +0.000 C 
ENDBRANCH  19  22
BRANCH  20  24
ATOM     24  O   UNL     1      11.653   1.414   0.000  0.00  0.00    +0.000 OA
ATOM     25  C   UNL     1      11.653   2.239   0.000  0.00  0.00    +0.000 C 
ENDBRANCH  20  24
ENDBRANCH   7  16
ENDBRANCH   1   6
BRANCH   1  33
ATOM     26  O   UNL     1       6.651   0.177   0.000  0.00  0.00    +0.000 OA
ATOM     27  O   UNL     1       5.222  -1.473   0.000  0.00  0.00    +0.000 OA
ATOM     28  O   UNL     1       8.080  -1.473   0.000  0.00  0.00    +0.000 OA
ATOM     29  C   UNL     1       6.651  -1.473   0.000  0.00  0.00    +0.000 C 
ATOM     30  C   UNL     1       5.937  -1.061   0.000  0.00  0.00    +0.000 C 
ATOM     31  C   UNL     1       7.366  -1.061   0.000  0.00  0.00    +0.000 C 
ATOM     32  C   UNL     1       5.937  -0.236   0.000  0.00  0.00    +0.000 C 
ATOM     33  C   UNL     1       7.366  -0.236   0.000  0.00  0.00    +0.000 C 
BRANCH  32  35
ATOM     34  O   UNL     1       5.222   1.002   0.000  0.00  0.00    +0.000 OA
ATOM     35  C   UNL     1       5.222   0.177   0.000  0.00  0.00    +0.000 C 
ENDBRANCH  32  35
BRANCH  29  36
ATOM     36  O   UNL     1       6.651  -2.298   0.000  0.00  0.00    +0.000 OA
BRANCH  36  41
ATOM     37  O   UNL     1       5.222  -2.298   0.000  0.00  0.00    +0.000 OA
ATOM     38  O   UNL     1       6.651  -3.948   0.000  0.00  0.00    +0.000 OA
ATOM     39  O   UNL     1       5.222  -4.773   0.000  0.00  0.00    +0.000 OA
ATOM     40  O   UNL     1       3.793  -3.948   0.000  0.00  0.00    +0.000 OA
ATOM     41  C   UNL     1       5.937  -2.711   0.000  0.00  0.00    +0.000 C 
ATOM     42  C   UNL     1       5.937  -3.536   0.000  0.00  0.00    +0.000 C 
ATOM     43  C   UNL     1       5.222  -3.948   0.000  0.00  0.00    +0.000 C 
ATOM     44  C   UNL     1       4.508  -3.536   0.000  0.00  0.00    +0.000 C 
ATOM     45  C   UNL     1       4.508  -2.711   0.000  0.00  0.00    +0.000 C 
BRANCH  45  46
ATOM     46  C   UNL     1       3.793  -2.298   0.000  0.00  0.00    +0.000 C 
BRANCH  46  47
ATOM     47  O   UNL     1       3.079  -2.711   0.000  0.00  0.00    +0.000 OA
BRANCH  47  49
ATOM     48  O   UNL     1       2.364  -1.473   0.000  0.00  0.00    +0.000 OA
ATOM     49  C   UNL     1       2.364  -2.298   0.000  0.00  0.00    +0.000 C 
ATOM     50  C   UNL     1       1.650  -2.711   0.000  0.00  0.00    +0.000 C 
ENDBRANCH  47  49
ENDBRANCH  46  47
ENDBRANCH  45  46
ENDBRANCH  36  41
ENDBRANCH  29  36
ENDBRANCH   1  33
TORSDOF 11
