REMARK  Name = 42608089
REMARK  4 active torsions:
REMARK  status: ('A' for Active; 'I' for Inactive)
REMARK    1  A    between atoms: O_2  and  C_14
REMARK    2  A    between atoms: O_4  and  C_15
REMARK    3  A    between atoms: O_5  and  C_22
REMARK    4  A    between atoms: C_7  and  C_12
REMARK                            x       y       z     vdW  Elec       q    Type
REMARK                         _______ _______ _______ _____ _____    ______ ____
ROOT
ATOM      1  O   UNL     1       5.245  -0.301   0.000  0.00  0.00    +0.000 OA
ATOM      2  O   UNL     1       5.236   2.231   0.000  0.00  0.00    +0.000 OA
ATOM      3  C   UNL     1       5.993   0.123   0.000  0.00  0.00    +0.000 C 
ATOM      4  C   UNL     1       5.993   0.982   0.000  0.00  0.00    +0.000 C 
ATOM      5  C   UNL     1       4.508   0.965   0.000  0.00  0.00    +0.000 A 
ATOM      6  C   UNL     1       4.508   0.140   0.000  0.00  0.00    +0.000 A 
ATOM      7  C   UNL     1       5.245   1.406   0.000  0.00  0.00    +0.000 C 
ATOM      8  C   UNL     1       3.793  -0.272   0.000  0.00  0.00    +0.000 A 
ATOM      9  C   UNL     1       3.793   1.378   0.000  0.00  0.00    +0.000 A 
ATOM     10  C   UNL     1       3.079   0.140   0.000  0.00  0.00    +0.000 A 
ATOM     11  C   UNL     1       3.079   0.965   0.000  0.00  0.00    +0.000 A 
ATOM     12  C   UNL     1       3.793  -1.097   0.000  0.00  0.00    +0.000 C 
ENDROOT
BRANCH   3  14
ATOM     13  O   UNL     1       7.412  -2.358   0.000  0.00  0.00    +0.000 OA
ATOM     14  C   UNL     1       6.706  -0.292   0.000  0.00  0.00    +0.000 A 
ATOM     15  C   UNL     1       6.703  -1.117   0.000  0.00  0.00    +0.000 A 
ATOM     16  C   UNL     1       7.422   0.117   0.000  0.00  0.00    +0.000 A 
ATOM     17  C   UNL     1       7.415  -1.533   0.000  0.00  0.00    +0.000 A 
ATOM     18  C   UNL     1       8.135  -0.298   0.000  0.00  0.00    +0.000 A 
ATOM     19  C   UNL     1       8.132  -1.123   0.000  0.00  0.00    +0.000 A 
BRANCH  19  20
ATOM     20  O   UNL     1       8.844  -1.538   0.000  0.00  0.00    +0.000 OA
ATOM     21  C   UNL     1       9.560  -1.128   0.000  0.00  0.00    +0.000 C 
ENDBRANCH  19  20
ENDBRANCH   3  14
BRANCH   9  22
ATOM     22  O   UNL     1       3.793   2.203   0.000  0.00  0.00    +0.000 OA
ATOM     23  C   UNL     1       3.079   2.615   0.000  0.00  0.00    +0.000 C 
ENDBRANCH   9  22
BRANCH  10  24
ATOM     24  O   UNL     1       2.364  -0.272   0.000  0.00  0.00    +0.000 OA
ATOM     25  C   UNL     1       1.650   0.140   0.000  0.00  0.00    +0.000 C 
ENDBRANCH  10  24
TORSDOF 4
