REMARK  Name = 44259254
REMARK  9 active torsions:
REMARK  status: ('A' for Active; 'I' for Inactive)
REMARK    1  A    between atoms: O_2  and  C_28
REMARK    2  A    between atoms: O_2  and  C_32
REMARK    3  A    between atoms: O_6  and  C_31
REMARK    4  A    between atoms: O_6  and  C_40
REMARK    5  A    between atoms: O_12  and  C_38
REMARK    6  A    between atoms: O_12  and  C_42
REMARK    7  A    between atoms: C_23  and  C_32
REMARK    8  A    between atoms: C_39  and  C_41
REMARK    9  A    between atoms: C_49  and  C_50
REMARK                            x       y       z     vdW  Elec       q    Type
REMARK                         _______ _______ _______ _____ _____    ______ ____
ROOT
ATOM      1  O   UNL     1       7.098   2.288   0.000  0.00  0.00    +0.000 OA
ATOM      2  O   UNL     1       5.641  -0.207   0.000  0.00  0.00    +0.000 OA
ATOM      3  O   UNL     1       4.950   1.059   0.000  0.00  0.00    +0.000 OA
ATOM      4  C   UNL     1       7.847   0.183   0.000  0.00  0.00    +0.000 A 
ATOM      5  C   UNL     1       5.669   2.293   0.000  0.00  0.00    +0.000 A 
ATOM      6  C   UNL     1       7.844   1.042   0.000  0.00  0.00    +0.000 A 
ATOM      7  C   UNL     1       7.101  -0.244   0.000  0.00  0.00    +0.000 A 
ATOM      8  C   UNL     1       7.095   1.463   0.000  0.00  0.00    +0.000 A 
ATOM      9  C   UNL     1       6.379   1.053   0.000  0.00  0.00    +0.000 A 
ATOM     10  C   UNL     1       5.666   1.468   0.000  0.00  0.00    +0.000 A 
ATOM     11  C   UNL     1       6.362   0.194   0.000  0.00  0.00    +0.000 A 
ATOM     12  C   UNL     1       6.385   2.703   0.000  0.00  0.00    +0.000 A 
ENDROOT
BRANCH  12  15
ATOM     13  O   UNL     1       7.824   5.173   0.000  0.00  0.00    +0.000 OA
ATOM     14  O   UNL     1       6.398   6.003   0.000  0.00  0.00    +0.000 OA
ATOM     15  C   UNL     1       6.388   3.528   0.000  0.00  0.00    +0.000 A 
ATOM     16  C   UNL     1       7.104   3.938   0.000  0.00  0.00    +0.000 A 
ATOM     17  C   UNL     1       5.675   3.943   0.000  0.00  0.00    +0.000 A 
ATOM     18  C   UNL     1       7.107   4.763   0.000  0.00  0.00    +0.000 A 
ATOM     19  C   UNL     1       5.679   4.769   0.000  0.00  0.00    +0.000 A 
ATOM     20  C   UNL     1       6.395   5.178   0.000  0.00  0.00    +0.000 A 
ENDBRANCH  12  15
BRANCH   4  21
ATOM     21  O   UNL     1       8.562  -0.230   0.000  0.00  0.00    +0.000 OA
BRANCH  21  30
ATOM     22  O   UNL     1       7.847  -1.467   0.000  0.00  0.00    +0.000 OA
ATOM     23  O   UNL     1       8.562  -3.530   0.000  0.00  0.00    +0.000 OA
ATOM     24  O   UNL     1       9.991  -2.705   0.000  0.00  0.00    +0.000 OA
ATOM     25  O   UNL     1       9.991  -1.055   0.000  0.00  0.00    +0.000 OA
ATOM     26  C   UNL     1       7.847  -2.292   0.000  0.00  0.00    +0.000 C 
ATOM     27  C   UNL     1       8.562  -2.705   0.000  0.00  0.00    +0.000 C 
ATOM     28  C   UNL     1       9.276  -2.292   0.000  0.00  0.00    +0.000 C 
ATOM     29  C   UNL     1       9.276  -1.467   0.000  0.00  0.00    +0.000 C 
ATOM     30  C   UNL     1       8.562  -1.055   0.000  0.00  0.00    +0.000 C 
BRANCH  26  31
ATOM     31  C   UNL     1       7.133  -2.705   0.000  0.00  0.00    +0.000 C 
BRANCH  31  32
ATOM     32  O   UNL     1       7.133  -3.530   0.000  0.00  0.00    +0.000 OA
BRANCH  32  38
ATOM     33  O   UNL     1       5.704  -3.530   0.000  0.00  0.00    +0.000 OA
ATOM     34  O   UNL     1       7.133  -5.180   0.000  0.00  0.00    +0.000 OA
ATOM     35  O   UNL     1       5.704  -6.005   0.000  0.00  0.00    +0.000 OA
ATOM     36  O   UNL     1       4.275  -5.180   0.000  0.00  0.00    +0.000 OA
ATOM     37  C   UNL     1       6.418  -4.767   0.000  0.00  0.00    +0.000 C 
ATOM     38  C   UNL     1       6.418  -3.942   0.000  0.00  0.00    +0.000 C 
ATOM     39  C   UNL     1       5.704  -5.180   0.000  0.00  0.00    +0.000 C 
ATOM     40  C   UNL     1       4.989  -4.767   0.000  0.00  0.00    +0.000 C 
ATOM     41  C   UNL     1       4.989  -3.942   0.000  0.00  0.00    +0.000 C 
ATOM     42  C   UNL     1       4.275  -3.530   0.000  0.00  0.00    +0.000 C 
ENDBRANCH  32  38
ENDBRANCH  31  32
ENDBRANCH  26  31
ENDBRANCH  21  30
ENDBRANCH   4  21
BRANCH   5  43
ATOM     43  O   UNL     1       4.956   2.709   0.000  0.00  0.00    +0.000 OA
BRANCH  43  51
ATOM     44  O   UNL     1       4.237   1.474   0.000  0.00  0.00    +0.000 OA
ATOM     45  O   UNL     1       2.098   2.720   0.000  0.00  0.00    +0.000 OA
ATOM     46  O   UNL     1       3.530   3.539   0.000  0.00  0.00    +0.000 OA
ATOM     47  O   UNL     1       2.092   1.070   0.000  0.00  0.00    +0.000 OA
ATOM     48  C   UNL     1       2.811   2.304   0.000  0.00  0.00    +0.000 C 
ATOM     49  C   UNL     1       3.527   2.714   0.000  0.00  0.00    +0.000 C 
ATOM     50  C   UNL     1       2.808   1.480   0.000  0.00  0.00    +0.000 C 
ATOM     51  C   UNL     1       4.240   2.299   0.000  0.00  0.00    +0.000 C 
ATOM     52  C   UNL     1       3.521   1.064   0.000  0.00  0.00    +0.000 C 
BRANCH  52  55
ATOM     53  O   UNL     1       2.802  -0.171   0.000  0.00  0.00    +0.000 OA
ATOM     54  O   UNL     1       4.231  -0.176   0.000  0.00  0.00    +0.000 OA
ATOM     55  C   UNL     1       3.518   0.239   0.000  0.00  0.00    +0.000 C 
ENDBRANCH  52  55
ENDBRANCH  43  51
ENDBRANCH   5  43
TORSDOF 9
