REMARK  Name = 44257202
REMARK  3 active torsions:
REMARK  status: ('A' for Active; 'I' for Inactive)
REMARK    1  A    between atoms: O_2  and  C_12
REMARK    2  A    between atoms: O_3  and  C_17
REMARK    3  A    between atoms: C_6  and  C_11
REMARK                            x       y       z     vdW  Elec       q    Type
REMARK                         _______ _______ _______ _____ _____    ______ ____
ROOT
ATOM      1  O   UNL     1       5.278  -0.303   0.000  0.00  0.00    +0.000 OA
ATOM      2  C   UNL     1       5.993   0.110   0.000  0.00  0.00    +0.000 C 
ATOM      3  C   UNL     1       5.993   0.934   0.000  0.00  0.00    +0.000 C 
ATOM      4  C   UNL     1       5.278   1.347   0.000  0.00  0.00    +0.000 C 
ATOM      5  C   UNL     1       4.564   0.934   0.000  0.00  0.00    +0.000 A 
ATOM      6  C   UNL     1       4.564   0.110   0.000  0.00  0.00    +0.000 A 
ATOM      7  C   UNL     1       3.826   1.376   0.000  0.00  0.00    +0.000 A 
ATOM      8  C   UNL     1       3.826  -0.332   0.000  0.00  0.00    +0.000 A 
ATOM      9  C   UNL     1       3.079   0.952   0.000  0.00  0.00    +0.000 A 
ATOM     10  C   UNL     1       3.079   0.092   0.000  0.00  0.00    +0.000 A 
ENDROOT
BRANCH   2  13
ATOM     11  O   UNL     1       7.422  -2.365   0.000  0.00  0.00    +0.000 OA
ATOM     12  O   UNL     1       8.851  -1.540   0.000  0.00  0.00    +0.000 OA
ATOM     13  C   UNL     1       6.707  -0.303   0.000  0.00  0.00    +0.000 A 
ATOM     14  C   UNL     1       6.707  -1.128   0.000  0.00  0.00    +0.000 A 
ATOM     15  C   UNL     1       7.422   0.110   0.000  0.00  0.00    +0.000 A 
ATOM     16  C   UNL     1       7.422  -1.540   0.000  0.00  0.00    +0.000 A 
ATOM     17  C   UNL     1       8.136  -0.303   0.000  0.00  0.00    +0.000 A 
ATOM     18  C   UNL     1       8.136  -1.128   0.000  0.00  0.00    +0.000 A 
ENDBRANCH   2  13
BRANCH   7  19
ATOM     19  O   UNL     1       3.836   2.200   0.000  0.00  0.00    +0.000 OA
ATOM     20  C   UNL     1       3.126   2.621   0.000  0.00  0.00    +0.000 C 
ENDBRANCH   7  19
BRANCH  10  21
ATOM     21  O   UNL     1       2.366  -0.323   0.000  0.00  0.00    +0.000 OA
ATOM     22  C   UNL     1       1.650   0.087   0.000  0.00  0.00    +0.000 C 
ENDBRANCH  10  21
TORSDOF 3
