REMARK  Name = 42607796
REMARK  4 active torsions:
REMARK  status: ('A' for Active; 'I' for Inactive)
REMARK    1  A    between atoms: O_2  and  C_13
REMARK    2  A    between atoms: O_2  and  C_15
REMARK    3  A    between atoms: C_12  and  C_14
REMARK    4  A    between atoms: C_16  and  C_24
REMARK                            x       y       z     vdW  Elec       q    Type
REMARK                         _______ _______ _______ _____ _____    ______ ____
ROOT
ATOM      1  O   UNL     1       7.114   1.394   0.000  0.00  0.00    +0.000 OA
ATOM      2  O   UNL     1       4.975   2.640   0.000  0.00  0.00    +0.000 OA
ATOM      3  C   UNL     1       5.665  -0.308   0.000  0.00  0.00    +0.000 A 
ATOM      4  C   UNL     1       7.117   2.219   0.000  0.00  0.00    +0.000 C 
ATOM      5  C   UNL     1       6.404   2.634   0.000  0.00  0.00    +0.000 C 
ATOM      6  C   UNL     1       6.398   0.984   0.000  0.00  0.00    +0.000 A 
ATOM      7  C   UNL     1       5.685   1.399   0.000  0.00  0.00    +0.000 A 
ATOM      8  C   UNL     1       6.408   0.125   0.000  0.00  0.00    +0.000 A 
ATOM      9  C   UNL     1       5.688   2.224   0.000  0.00  0.00    +0.000 C 
ATOM     10  C   UNL     1       4.923   0.125   0.000  0.00  0.00    +0.000 A 
ATOM     11  C   UNL     1       4.933   0.984   0.000  0.00  0.00    +0.000 A 
ENDROOT
BRANCH   4  12
ATOM     12  C   UNL     1       7.833   2.629   0.000  0.00  0.00    +0.000 A 
ATOM     13  C   UNL     1       7.836   3.454   0.000  0.00  0.00    +0.000 A 
ATOM     14  C   UNL     1       8.546   2.213   0.000  0.00  0.00    +0.000 A 
ATOM     15  C   UNL     1       8.552   3.863   0.000  0.00  0.00    +0.000 A 
ATOM     16  C   UNL     1       9.262   2.623   0.000  0.00  0.00    +0.000 A 
ATOM     17  C   UNL     1       9.265   3.448   0.000  0.00  0.00    +0.000 A 
ENDBRANCH   4  12
BRANCH   3  18
ATOM     18  O   UNL     1       5.665  -1.133   0.000  0.00  0.00    +0.000 OA
BRANCH  18  27
ATOM     19  O   UNL     1       4.236  -1.133   0.000  0.00  0.00    +0.000 OA
ATOM     20  O   UNL     1       4.236  -3.608   0.000  0.00  0.00    +0.000 OA
ATOM     21  O   UNL     1       2.808  -2.783   0.000  0.00  0.00    +0.000 OA
ATOM     22  O   UNL     1       5.665  -2.783   0.000  0.00  0.00    +0.000 OA
ATOM     23  C   UNL     1       4.236  -2.783   0.000  0.00  0.00    +0.000 C 
ATOM     24  C   UNL     1       3.522  -2.370   0.000  0.00  0.00    +0.000 C 
ATOM     25  C   UNL     1       4.951  -2.370   0.000  0.00  0.00    +0.000 C 
ATOM     26  C   UNL     1       3.522  -1.545   0.000  0.00  0.00    +0.000 C 
ATOM     27  C   UNL     1       4.951  -1.545   0.000  0.00  0.00    +0.000 C 
BRANCH  26  29
ATOM     28  O   UNL     1       2.093  -1.545   0.000  0.00  0.00    +0.000 OA
ATOM     29  C   UNL     1       2.808  -1.133   0.000  0.00  0.00    +0.000 C 
ENDBRANCH  26  29
ENDBRANCH  18  27
ENDBRANCH   3  18
TORSDOF 4
