REMARK  Name = 
REMARK  4 active torsions:
REMARK  status: ('A' for Active; 'I' for Inactive)
REMARK    1  A    between atoms: C_6  and  C_8
REMARK    2  A    between atoms: C_11  and  O_13
REMARK    3  A    between atoms: C_15  and  O_19
REMARK    4  A    between atoms: C_20  and  O_23
REMARK                            x       y       z     vdW  Elec       q    Type
REMARK                         _______ _______ _______ _____ _____    ______ ____
ROOT
ATOM      1  C   UNL     1       1.429  -1.238   0.000  0.00  0.00    +0.000 A 
ATOM      2  O   UNL     1       2.143  -1.650   0.000  0.00  0.00    +0.000 OA
ATOM      3  C   UNL     1       1.429  -0.412   0.000  0.00  0.00    +0.000 A 
ATOM      4  C   UNL     1       2.858  -1.238   0.000  0.00  0.00    +0.000 A 
ATOM      5  C   UNL     1       2.143   0.000   0.000  0.00  0.00    +0.000 A 
ATOM      6  C   UNL     1       3.572  -1.650   0.000  0.00  0.00    +0.000 A 
ATOM      7  C   UNL     1       2.858  -0.412   0.000  0.00  0.00    +0.000 A 
ATOM      8  O   UNL     1       2.143   0.825   0.000  0.00  0.00    +0.000 OA
ATOM      9  C   UNL     1       4.287  -1.238   0.000  0.00  0.00    +0.000 A 
ATOM     10  C   UNL     1       3.572   0.000   0.000  0.00  0.00    +0.000 A 
ATOM     11  C   UNL     1       4.287  -0.412   0.000  0.00  0.00    +0.000 A 
ATOM     12  O   UNL     1       3.572   0.825   0.000  0.00  0.00    +0.000 OA
ENDROOT
BRANCH   1  18
ATOM     13 BR   UNL     1       0.000  -3.712   0.000  0.00  0.00    +0.000 Br
ATOM     14  C   UNL     1       0.000  -2.888   0.000  0.00  0.00    +0.000 A 
ATOM     15  C   UNL     1       0.714  -2.475   0.000  0.00  0.00    +0.000 A 
ATOM     16  C   UNL     1      -0.714  -2.475   0.000  0.00  0.00    +0.000 A 
ATOM     17  O   UNL     1       1.429  -2.888   0.000  0.00  0.00    +0.000 OA
ATOM     18  C   UNL     1       0.714  -1.650   0.000  0.00  0.00    +0.000 A 
ATOM     19  C   UNL     1      -0.714  -1.650   0.000  0.00  0.00    +0.000 A 
ATOM     20  C   UNL     1       0.000  -1.238   0.000  0.00  0.00    +0.000 A 
ENDBRANCH   1  18
BRANCH   3  21
ATOM     21  O   UNL     1       0.714   0.000   0.000  0.00  0.00    +0.000 OA
ATOM     22  C   UNL     1       0.000  -0.412   0.000  0.00  0.00    +0.000 C 
ENDBRANCH   3  21
BRANCH   6  23
ATOM     23  O   UNL     1       3.572  -2.475   0.000  0.00  0.00    +0.000 OA
ATOM     24  C   UNL     1       4.287  -2.888   0.000  0.00  0.00    +0.000 C 
ENDBRANCH   6  23
BRANCH   9  25
ATOM     25  O   UNL     1       5.001  -1.650   0.000  0.00  0.00    +0.000 OA
ATOM     26  C   UNL     1       5.716  -1.238   0.000  0.00  0.00    +0.000 C 
ENDBRANCH   9  25
TORSDOF 4
