REMARK  Name = 
REMARK  4 active torsions:
REMARK  status: ('A' for Active; 'I' for Inactive)
REMARK    1  A    between atoms: C_6  and  C_8
REMARK    2  A    between atoms: C_12  and  O_14
REMARK    3  A    between atoms: C_16  and  O_20
REMARK    4  A    between atoms: C_21  and  O_24
REMARK                            x       y       z     vdW  Elec       q    Type
REMARK                         _______ _______ _______ _____ _____    ______ ____
ROOT
ATOM      1  C   UNL     1       1.429  -1.238   0.000  0.00  0.00    +0.000 A 
ATOM      2  O   UNL     1       2.143  -1.650   0.000  0.00  0.00    +0.000 OA
ATOM      3  C   UNL     1       1.429  -0.412   0.000  0.00  0.00    +0.000 A 
ATOM      4  C   UNL     1       2.858  -1.238   0.000  0.00  0.00    +0.000 A 
ATOM      5  C   UNL     1       2.143   0.000   0.000  0.00  0.00    +0.000 A 
ATOM      6  C   UNL     1       3.572  -1.650   0.000  0.00  0.00    +0.000 A 
ATOM      7  C   UNL     1       2.858  -0.412   0.000  0.00  0.00    +0.000 A 
ATOM      8  O   UNL     1       2.143   0.825   0.000  0.00  0.00    +0.000 OA
ATOM      9  C   UNL     1       4.287  -1.238   0.000  0.00  0.00    +0.000 A 
ATOM     10  C   UNL     1       3.572   0.000   0.000  0.00  0.00    +0.000 A 
ATOM     11  C   UNL     1       4.287  -0.412   0.000  0.00  0.00    +0.000 A 
ATOM     12  O   UNL     1       3.572   0.825   0.000  0.00  0.00    +0.000 OA
ENDROOT
BRANCH   1  18
ATOM     13 CL   UNL     1       0.000  -3.712   0.000  0.00  0.00    +0.000 Cl
ATOM     14  C   UNL     1       0.000  -2.888   0.000  0.00  0.00    +0.000 A 
ATOM     15  C   UNL     1       0.714  -2.475   0.000  0.00  0.00    +0.000 A 
ATOM     16  C   UNL     1      -0.714  -2.475   0.000  0.00  0.00    +0.000 A 
ATOM     17  O   UNL     1       1.429  -2.888   0.000  0.00  0.00    +0.000 OA
ATOM     18  C   UNL     1       0.714  -1.650   0.000  0.00  0.00    +0.000 A 
ATOM     19  C   UNL     1      -0.714  -1.650   0.000  0.00  0.00    +0.000 A 
ATOM     20  C   UNL     1       0.000  -1.238   0.000  0.00  0.00    +0.000 A 
ATOM     21  O   UNL     1      -1.429  -1.238   0.000  0.00  0.00    +0.000 OA
ENDBRANCH   1  18
BRANCH   3  22
ATOM     22  O   UNL     1       0.714   0.000   0.000  0.00  0.00    +0.000 OA
ATOM     23  C   UNL     1       0.000  -0.412   0.000  0.00  0.00    +0.000 C 
ENDBRANCH   3  22
BRANCH   6  24
ATOM     24  O   UNL     1       3.572  -2.475   0.000  0.00  0.00    +0.000 OA
ATOM     25  C   UNL     1       4.287  -2.888   0.000  0.00  0.00    +0.000 C 
ENDBRANCH   6  24
BRANCH   9  26
ATOM     26  O   UNL     1       5.001  -1.650   0.000  0.00  0.00    +0.000 OA
ATOM     27  C   UNL     1       5.716  -1.238   0.000  0.00  0.00    +0.000 C 
ENDBRANCH   9  26
TORSDOF 4
