REMARK  Name = 
REMARK  7 active torsions:
REMARK  status: ('A' for Active; 'I' for Inactive)
REMARK    1  A    between atoms: C_6  and  C_11
REMARK    2  A    between atoms: C_7  and  C_12
REMARK    3  A    between atoms: C_14  and  O_18
REMARK    4  A    between atoms: O_18  and  C_21
REMARK    5  A    between atoms: C_26  and  N_29
REMARK    6  A    between atoms: C_31  and  C_33
REMARK    7  A    between atoms: C_33  and  C_34
REMARK                            x       y       z     vdW  Elec       q    Type
REMARK                         _______ _______ _______ _____ _____    ______ ____
ROOT
ATOM      1  O   UNL     1       6.430  -4.125   0.000  0.00  0.00    +0.000 OA
ATOM      2  C   UNL     1       5.716  -3.713   0.000  0.00  0.00    +0.000 C 
ATOM      3  C   UNL     1       5.716  -2.888   0.000  0.00  0.00    +0.000 A 
ATOM      4  C   UNL     1       5.001  -4.125   0.000  0.00  0.00    +0.000 C 
ATOM      5  C   UNL     1       5.001  -2.475   0.000  0.00  0.00    +0.000 A 
ATOM      6  C   UNL     1       6.430  -2.475   0.000  0.00  0.00    +0.000 A 
ATOM      7  C   UNL     1       4.287  -3.713   0.000  0.00  0.00    +0.000 C 
ATOM      8  O   UNL     1       4.287  -2.888   0.000  0.00  0.00    +0.000 OA
ATOM      9  C   UNL     1       5.001  -1.650   0.000  0.00  0.00    +0.000 A 
ATOM     10  C   UNL     1       6.430  -1.650   0.000  0.00  0.00    +0.000 A 
ATOM     11  O   UNL     1       4.287  -1.238   0.000  0.00  0.00    +0.000 OA
ATOM     12  C   UNL     1       5.716  -1.238   0.000  0.00  0.00    +0.000 A 
ENDROOT
BRANCH   7  13
ATOM     13  C   UNL     1       3.572  -4.125   0.000  0.00  0.00    +0.000 A 
ATOM     14  C   UNL     1       2.858  -3.713   0.000  0.00  0.00    +0.000 A 
ATOM     15  C   UNL     1       3.572  -4.950   0.000  0.00  0.00    +0.000 A 
ATOM     16  C   UNL     1       2.143  -4.125   0.000  0.00  0.00    +0.000 A 
ATOM     17  C   UNL     1       2.858  -5.363   0.000  0.00  0.00    +0.000 A 
ATOM     18  C   UNL     1       2.143  -4.950   0.000  0.00  0.00    +0.000 A 
ENDBRANCH   7  13
BRANCH   6  19
ATOM     19  C   UNL     1       7.145  -2.888   0.000  0.00  0.00    +0.000 C 
ATOM     20  O   UNL     1       7.859  -2.475   0.000  0.00  0.00    +0.000 OA
ENDBRANCH   6  19
BRANCH  12  21
ATOM     21  O   UNL     1       5.716  -0.412   0.000  0.00  0.00    +0.000 OA
BRANCH  21  22
ATOM     22  C   UNL     1       5.001   0.000   0.000  0.00  0.00    +0.000 C 
ATOM     23  O   UNL     1       5.001   0.825   0.000  0.00  0.00    +0.000 OA
ATOM     24  C   UNL     1       4.287  -0.412   0.000  0.00  0.00    +0.000 C 
ATOM     25  C   UNL     1       4.287   1.238   0.000  0.00  0.00    +0.000 C 
ATOM     26  C   UNL     1       3.572   0.000   0.000  0.00  0.00    +0.000 C 
ATOM     27  C   UNL     1       3.572   0.825   0.000  0.00  0.00    +0.000 C 
ATOM     28  C   UNL     1       4.287   2.062   0.000  0.00  0.00    +0.000 C 
ATOM     29  O   UNL     1       2.858   1.238   0.000  0.00  0.00    +0.000 OA
BRANCH  26  30
ATOM     30  N   UNL     1       2.858  -0.412   0.000  0.00  0.00    +0.000 NA
ATOM     31  C   UNL     1       2.143   0.000   0.000  0.00  0.00    +0.000 C 
ATOM     32  O   UNL     1       2.143   0.825   0.000  0.00  0.00    +0.000 OA
BRANCH  31  33
ATOM     33  C   UNL     1       1.429  -0.412   0.000  0.00  0.00    +0.000 C 
ATOM     34  C   UNL     1       1.429  -1.238   0.000  0.00  0.00    +0.000 C 
BRANCH  33  35
ATOM     35  C   UNL     1       0.715   0.000   0.000  0.00  0.00    +0.000 C 
ATOM     36  O   UNL     1       0.715   0.825   0.000  0.00  0.00    +0.000 OA
ATOM     37  C   UNL     1       0.000  -0.412   0.000  0.00  0.00    +0.000 C 
ENDBRANCH  33  35
ENDBRANCH  31  33
ENDBRANCH  26  30
ENDBRANCH  21  22
ENDBRANCH  12  21
TORSDOF 7
