REMARK  Name = 
REMARK  5 active torsions:
REMARK  status: ('A' for Active; 'I' for Inactive)
REMARK    1  A    between atoms: C_7  and  C_12
REMARK    2  A    between atoms: C_17  and  O_19
REMARK    3  A    between atoms: C_18  and  O_21
REMARK    4  A    between atoms: C_20  and  O_23
REMARK    5  A    between atoms: O_23  and  C_25
REMARK                            x       y       z     vdW  Elec       q    Type
REMARK                         _______ _______ _______ _____ _____    ______ ____
ROOT
ATOM      1  C   UNL     1       2.858  -0.412   0.000  0.00  0.00    +0.000 A 
ATOM      2  C   UNL     1       2.143   0.000   0.000  0.00  0.00    +0.000 A 
ATOM      3  C   UNL     1       2.858  -1.238   0.000  0.00  0.00    +0.000 A 
ATOM      4  C   UNL     1       1.429  -0.412   0.000  0.00  0.00    +0.000 A 
ATOM      5  C   UNL     1       2.143  -1.650   0.000  0.00  0.00    +0.000 A 
ATOM      6  C   UNL     1       1.429  -1.238   0.000  0.00  0.00    +0.000 A 
ENDROOT
BRANCH   1  13
ATOM      7  O   UNL     1       5.716  -0.412   0.000  0.00  0.00    +0.000 OA
ATOM      8  C   UNL     1       5.001   0.000   0.000  0.00  0.00    +0.000 A 
ATOM      9  C   UNL     1       5.001   0.825   0.000  0.00  0.00    +0.000 A 
ATOM     10  C   UNL     1       4.287  -0.412   0.000  0.00  0.00    +0.000 A 
ATOM     11  C   UNL     1       4.287   1.238   0.000  0.00  0.00    +0.000 A 
ATOM     12  C   UNL     1       5.716   1.238   0.000  0.00  0.00    +0.000 A 
ATOM     13  C   UNL     1       3.572   0.000   0.000  0.00  0.00    +0.000 A 
ATOM     14  O   UNL     1       3.572   0.825   0.000  0.00  0.00    +0.000 OA
ATOM     15  C   UNL     1       4.287   2.062   0.000  0.00  0.00    +0.000 A 
ATOM     16  O   UNL     1       6.430   0.825   0.000  0.00  0.00    +0.000 OA
ATOM     17  C   UNL     1       5.716   2.062   0.000  0.00  0.00    +0.000 A 
ATOM     18  C   UNL     1       5.001   2.475   0.000  0.00  0.00    +0.000 A 
ATOM     19  O   UNL     1       5.001   3.300   0.000  0.00  0.00    +0.000 OA
ENDBRANCH   1  13
BRANCH   4  20
ATOM     20  O   UNL     1       0.715   0.000   0.000  0.00  0.00    +0.000 OA
ATOM     21  C   UNL     1       0.000  -0.412   0.000  0.00  0.00    +0.000 C 
ENDBRANCH   4  20
BRANCH   5  22
ATOM     22  O   UNL     1       2.143  -2.475   0.000  0.00  0.00    +0.000 OA
ATOM     23  C   UNL     1       2.858  -2.888   0.000  0.00  0.00    +0.000 C 
ENDBRANCH   5  22
BRANCH   6  24
ATOM     24  O   UNL     1       0.715  -1.650   0.000  0.00  0.00    +0.000 OA
BRANCH  24  25
ATOM     25  C   UNL     1       0.715  -2.475   0.000  0.00  0.00    +0.000 C 
ATOM     26  O   UNL     1       1.429  -2.888   0.000  0.00  0.00    +0.000 OA
ATOM     27  C   UNL     1       0.000  -2.888   0.000  0.00  0.00    +0.000 C 
ATOM     28  C   UNL     1       1.429  -3.713   0.000  0.00  0.00    +0.000 C 
ATOM     29  O   UNL     1      -0.715  -2.475   0.000  0.00  0.00    +0.000 OA
ATOM     30  C   UNL     1       0.000  -3.713   0.000  0.00  0.00    +0.000 C 
ATOM     31  C   UNL     1       0.715  -4.125   0.000  0.00  0.00    +0.000 C 
ATOM     32  C   UNL     1       2.143  -4.125   0.000  0.00  0.00    +0.000 C 
ATOM     33  O   UNL     1      -0.715  -4.125   0.000  0.00  0.00    +0.000 OA
ATOM     34  O   UNL     1       0.715  -4.950   0.000  0.00  0.00    +0.000 OA
ENDBRANCH  24  25
ENDBRANCH   6  24
TORSDOF 5
