REMARK  Name = 
REMARK  8 active torsions:
REMARK  status: ('A' for Active; 'I' for Inactive)
REMARK    1  A    between atoms: C_7  and  C_12
REMARK    2  A    between atoms: C_13  and  O_16
REMARK    3  A    between atoms: O_16  and  C_19
REMARK    4  A    between atoms: C_17  and  O_20
REMARK    5  A    between atoms: C_19  and  C_22
REMARK    6  A    between atoms: O_20  and  C_23
REMARK    7  A    between atoms: C_21  and  O_24
REMARK    8  A    between atoms: C_23  and  C_26
REMARK                            x       y       z     vdW  Elec       q    Type
REMARK                         _______ _______ _______ _____ _____    ______ ____
ROOT
ATOM      1  O   UNL     1       5.716   2.062   0.000  0.00  0.00    +0.000 OA
ATOM      2  C   UNL     1       5.716   1.238   0.000  0.00  0.00    +0.000 A 
ATOM      3  C   UNL     1       5.001   0.825   0.000  0.00  0.00    +0.000 A 
ATOM      4  C   UNL     1       6.430   0.825   0.000  0.00  0.00    +0.000 A 
ATOM      5  C   UNL     1       5.001   0.000   0.000  0.00  0.00    +0.000 A 
ATOM      6  C   UNL     1       4.287   1.238   0.000  0.00  0.00    +0.000 A 
ATOM      7  C   UNL     1       6.430   0.000   0.000  0.00  0.00    +0.000 A 
ATOM      8  O   UNL     1       5.716  -0.412   0.000  0.00  0.00    +0.000 OA
ATOM      9  C   UNL     1       4.287  -0.412   0.000  0.00  0.00    +0.000 A 
ATOM     10  O   UNL     1       4.287   2.062   0.000  0.00  0.00    +0.000 OA
ATOM     11  C   UNL     1       3.572   0.825   0.000  0.00  0.00    +0.000 A 
ATOM     12  C   UNL     1       3.572   0.000   0.000  0.00  0.00    +0.000 A 
ENDROOT
BRANCH   7  13
ATOM     13  C   UNL     1       7.145  -0.412   0.000  0.00  0.00    +0.000 A 
ATOM     14  C   UNL     1       7.145  -1.238   0.000  0.00  0.00    +0.000 A 
ATOM     15  C   UNL     1       7.859   0.000   0.000  0.00  0.00    +0.000 A 
ATOM     16  C   UNL     1       7.859  -1.650   0.000  0.00  0.00    +0.000 A 
ATOM     17  C   UNL     1       8.574  -0.412   0.000  0.00  0.00    +0.000 A 
ATOM     18  C   UNL     1       8.574  -1.238   0.000  0.00  0.00    +0.000 A 
BRANCH  18  19
ATOM     19  O   UNL     1       9.288  -1.650   0.000  0.00  0.00    +0.000 OA
ATOM     20  C   UNL     1      10.003  -1.238   0.000  0.00  0.00    +0.000 C 
ENDBRANCH  18  19
BRANCH  16  21
ATOM     21  O   UNL     1       7.859  -2.475   0.000  0.00  0.00    +0.000 OA
BRANCH  21  22
ATOM     22  C   UNL     1       7.145  -2.888   0.000  0.00  0.00    +0.000 C 
BRANCH  22  23
ATOM     23  C   UNL     1       7.145  -3.712   0.000  0.00  0.00    +0.000 C 
ATOM     24  C   UNL     1       6.430  -4.125   0.000  0.00  0.00    +0.000 C 
ATOM     25  C   UNL     1       5.716  -3.712   0.000  0.00  0.00    +0.000 C 
ATOM     26  C   UNL     1       6.430  -4.950   0.000  0.00  0.00    +0.000 C 
ENDBRANCH  22  23
ENDBRANCH  21  22
ENDBRANCH  16  21
ENDBRANCH   7  13
BRANCH  12  27
ATOM     27  O   UNL     1       2.858  -0.412   0.000  0.00  0.00    +0.000 OA
BRANCH  27  28
ATOM     28  C   UNL     1       2.143   0.000   0.000  0.00  0.00    +0.000 C 
BRANCH  28  29
ATOM     29  C   UNL     1       1.429  -0.412   0.000  0.00  0.00    +0.000 C 
ATOM     30  C   UNL     1       0.714   0.000   0.000  0.00  0.00    +0.000 C 
ATOM     31  C   UNL     1       0.714   0.825   0.000  0.00  0.00    +0.000 C 
ATOM     32  C   UNL     1       0.000  -0.412   0.000  0.00  0.00    +0.000 C 
ENDBRANCH  28  29
ENDBRANCH  27  28
ENDBRANCH  12  27
TORSDOF 8
