REMARK  Name = 
REMARK  4 active torsions:
REMARK  status: ('A' for Active; 'I' for Inactive)
REMARK    1  A    between atoms: C_7  and  C_12
REMARK    2  A    between atoms: C_13  and  O_16
REMARK    3  A    between atoms: C_20  and  O_21
REMARK    4  A    between atoms: O_21  and  C_22
REMARK                            x       y       z     vdW  Elec       q    Type
REMARK                         _______ _______ _______ _____ _____    ______ ____
ROOT
ATOM      1  C   UNL     1       2.858  -3.712   0.000  0.00  0.00    +0.000 A 
ATOM      2  C   UNL     1       2.143  -4.125   0.000  0.00  0.00    +0.000 A 
ATOM      3  C   UNL     1       3.572  -4.125   0.000  0.00  0.00    +0.000 A 
ATOM      4  C   UNL     1       2.143  -4.950   0.000  0.00  0.00    +0.000 A 
ATOM      5  C   UNL     1       3.572  -4.950   0.000  0.00  0.00    +0.000 A 
ATOM      6  C   UNL     1       2.858  -5.362   0.000  0.00  0.00    +0.000 A 
ENDROOT
BRANCH   1  13
ATOM      7  O   UNL     1       4.287  -1.238   0.000  0.00  0.00    +0.000 OA
ATOM      8  C   UNL     1       3.572  -1.650   0.000  0.00  0.00    +0.000 C 
ATOM      9  C   UNL     1       2.858  -1.238   0.000  0.00  0.00    +0.000 A 
ATOM     10  C   UNL     1       3.572  -2.475   0.000  0.00  0.00    +0.000 C 
ATOM     11  C   UNL     1       2.143  -1.650   0.000  0.00  0.00    +0.000 A 
ATOM     12  C   UNL     1       2.858  -0.412   0.000  0.00  0.00    +0.000 A 
ATOM     13  C   UNL     1       2.858  -2.888   0.000  0.00  0.00    +0.000 C 
ATOM     14  O   UNL     1       2.143  -2.475   0.000  0.00  0.00    +0.000 OA
ATOM     15  C   UNL     1       1.429  -1.238   0.000  0.00  0.00    +0.000 A 
ATOM     16  O   UNL     1       3.572   0.000   0.000  0.00  0.00    +0.000 OA
ATOM     17  C   UNL     1       2.143   0.000   0.000  0.00  0.00    +0.000 A 
ATOM     18  C   UNL     1       1.429  -0.412   0.000  0.00  0.00    +0.000 A 
BRANCH  18  19
ATOM     19  O   UNL     1       0.714   0.000   0.000  0.00  0.00    +0.000 OA
ATOM     20  C   UNL     1       0.000  -0.412   0.000  0.00  0.00    +0.000 C 
ENDBRANCH  18  19
ENDBRANCH   1  13
BRANCH   6  21
ATOM     21  O   UNL     1       2.858  -6.188   0.000  0.00  0.00    +0.000 OA
BRANCH  21  22
ATOM     22  C   UNL     1       3.572  -6.600   0.000  0.00  0.00    +0.000 C 
ATOM     23  O   UNL     1       3.572  -7.425   0.000  0.00  0.00    +0.000 OA
ATOM     24  C   UNL     1       4.287  -6.188   0.000  0.00  0.00    +0.000 C 
ATOM     25  C   UNL     1       4.287  -7.838   0.000  0.00  0.00    +0.000 C 
ATOM     26  O   UNL     1       4.287  -5.362   0.000  0.00  0.00    +0.000 OA
ATOM     27  C   UNL     1       5.001  -6.600   0.000  0.00  0.00    +0.000 C 
ATOM     28  C   UNL     1       5.001  -7.425   0.000  0.00  0.00    +0.000 C 
ATOM     29  O   UNL     1       5.716  -6.188   0.000  0.00  0.00    +0.000 OA
ATOM     30  O   UNL     1       5.716  -7.838   0.000  0.00  0.00    +0.000 OA
ENDBRANCH  21  22
ENDBRANCH   6  21
TORSDOF 4
