REMARK  Name = 
REMARK  3 active torsions:
REMARK  status: ('A' for Active; 'I' for Inactive)
REMARK    1  A    between atoms: C_7  and  C_12
REMARK    2  A    between atoms: C_13  and  O_16
REMARK    3  A    between atoms: O_16  and  C_19
REMARK                            x       y       z     vdW  Elec       q    Type
REMARK                         _______ _______ _______ _____ _____    ______ ____
ROOT
ATOM      1  O   UNL     1       4.287  -1.238   0.000  0.00  0.00    +0.000 OA
ATOM      2  C   UNL     1       3.572  -1.650   0.000  0.00  0.00    +0.000 C 
ATOM      3  C   UNL     1       2.858  -1.238   0.000  0.00  0.00    +0.000 A 
ATOM      4  C   UNL     1       3.572  -2.475   0.000  0.00  0.00    +0.000 C 
ATOM      5  C   UNL     1       2.143  -1.650   0.000  0.00  0.00    +0.000 A 
ATOM      6  C   UNL     1       2.858  -0.412   0.000  0.00  0.00    +0.000 A 
ATOM      7  C   UNL     1       2.858  -2.888   0.000  0.00  0.00    +0.000 C 
ATOM      8  O   UNL     1       2.143  -2.475   0.000  0.00  0.00    +0.000 OA
ATOM      9  C   UNL     1       1.429  -1.238   0.000  0.00  0.00    +0.000 A 
ATOM     10  O   UNL     1       3.572   0.000   0.000  0.00  0.00    +0.000 OA
ATOM     11  C   UNL     1       2.143   0.000   0.000  0.00  0.00    +0.000 A 
ATOM     12  C   UNL     1       1.429  -0.412   0.000  0.00  0.00    +0.000 A 
ENDROOT
BRANCH   7  13
ATOM     13  C   UNL     1       2.858  -3.713   0.000  0.00  0.00    +0.000 A 
ATOM     14  C   UNL     1       2.143  -4.125   0.000  0.00  0.00    +0.000 A 
ATOM     15  C   UNL     1       3.572  -4.125   0.000  0.00  0.00    +0.000 A 
ATOM     16  C   UNL     1       2.143  -4.950   0.000  0.00  0.00    +0.000 A 
ATOM     17  C   UNL     1       3.572  -4.950   0.000  0.00  0.00    +0.000 A 
ATOM     18  C   UNL     1       2.858  -5.363   0.000  0.00  0.00    +0.000 A 
ATOM     19  O   UNL     1       2.858  -6.188   0.000  0.00  0.00    +0.000 OA
ENDBRANCH   7  13
BRANCH  12  20
ATOM     20  O   UNL     1       0.715   0.000   0.000  0.00  0.00    +0.000 OA
BRANCH  20  21
ATOM     21  C   UNL     1       0.000  -0.412   0.000  0.00  0.00    +0.000 C 
ATOM     22  O   UNL     1      -0.715   0.000   0.000  0.00  0.00    +0.000 OA
ATOM     23  C   UNL     1       0.000  -1.238   0.000  0.00  0.00    +0.000 C 
ATOM     24  C   UNL     1      -1.429  -0.412   0.000  0.00  0.00    +0.000 C 
ATOM     25  O   UNL     1       0.715  -1.650   0.000  0.00  0.00    +0.000 OA
ATOM     26  C   UNL     1      -0.715  -1.650   0.000  0.00  0.00    +0.000 C 
ATOM     27  C   UNL     1      -1.429  -1.238   0.000  0.00  0.00    +0.000 C 
ATOM     28  O   UNL     1      -0.715  -2.475   0.000  0.00  0.00    +0.000 OA
ATOM     29  O   UNL     1      -2.143  -1.650   0.000  0.00  0.00    +0.000 OA
ENDBRANCH  20  21
ENDBRANCH  12  20
TORSDOF 3
