REMARK  Name = 
REMARK  2 active torsions:
REMARK  status: ('A' for Active; 'I' for Inactive)
REMARK    1  A    between atoms: C_3  and  C_6
REMARK    2  A    between atoms: C_17  and  O_22
REMARK                            x       y       z     vdW  Elec       q    Type
REMARK                         _______ _______ _______ _____ _____    ______ ____
ROOT
ATOM      1  O   UNL     1       4.287  -0.412   0.000  0.00  0.00    +0.000 OA
ATOM      2  C   UNL     1       5.001   0.000   0.000  0.00  0.00    +0.000 A 
ATOM      3  C   UNL     1       3.572   0.000   0.000  0.00  0.00    +0.000 C 
ATOM      4  C   UNL     1       5.001   0.825   0.000  0.00  0.00    +0.000 A 
ATOM      5  C   UNL     1       5.716  -0.412   0.000  0.00  0.00    +0.000 A 
ATOM      6  C   UNL     1       3.572   0.825   0.000  0.00  0.00    +0.000 C 
ATOM      7  C   UNL     1       5.716   1.238   0.000  0.00  0.00    +0.000 A 
ATOM      8  C   UNL     1       4.287   1.238   0.000  0.00  0.00    +0.000 C 
ATOM      9  C   UNL     1       6.430   0.000   0.000  0.00  0.00    +0.000 A 
ATOM     10  C   UNL     1       6.430   0.825   0.000  0.00  0.00    +0.000 A 
ATOM     11  C   UNL     1       5.716   2.062   0.000  0.00  0.00    +0.000 C 
ATOM     12  O   UNL     1       4.287   2.062   0.000  0.00  0.00    +0.000 OA
ATOM     13  O   UNL     1       7.145  -0.412   0.000  0.00  0.00    +0.000 OA
ATOM     14  C   UNL     1       7.145   1.238   0.000  0.00  0.00    +0.000 C 
ATOM     15  C   UNL     1       5.001   2.475   0.000  0.00  0.00    +0.000 C 
ATOM     16  C   UNL     1       6.430   2.475   0.000  0.00  0.00    +0.000 C 
ATOM     17  C   UNL     1       5.001   3.300   0.000  0.00  0.00    +0.000 C 
ENDROOT
BRANCH   3  18
ATOM     18  C   UNL     1       2.858  -0.412   0.000  0.00  0.00    +0.000 A 
ATOM     19  C   UNL     1       2.143   0.000   0.000  0.00  0.00    +0.000 A 
ATOM     20  C   UNL     1       2.858  -1.238   0.000  0.00  0.00    +0.000 A 
ATOM     21  C   UNL     1       1.429  -0.412   0.000  0.00  0.00    +0.000 A 
ATOM     22  C   UNL     1       2.143  -1.650   0.000  0.00  0.00    +0.000 A 
ATOM     23  C   UNL     1       1.429  -1.238   0.000  0.00  0.00    +0.000 A 
ATOM     24  O   UNL     1       0.715  -1.650   0.000  0.00  0.00    +0.000 OA
BRANCH  21  25
ATOM     25  O   UNL     1       0.715   0.000   0.000  0.00  0.00    +0.000 OA
ATOM     26  C   UNL     1       0.000  -0.412   0.000  0.00  0.00    +0.000 C 
ENDBRANCH  21  25
ENDBRANCH   3  18
TORSDOF 2
