REMARK  Name = 
REMARK  5 active torsions:
REMARK  status: ('A' for Active; 'I' for Inactive)
REMARK    1  A    between atoms: C_3  and  O_5
REMARK    2  A    between atoms: C_6  and  C_11
REMARK    3  A    between atoms: C_8  and  O_13
REMARK    4  A    between atoms: C_12  and  O_17
REMARK    5  A    between atoms: C_18  and  O_24
REMARK                            x       y       z     vdW  Elec       q    Type
REMARK                         _______ _______ _______ _____ _____    ______ ____
ROOT
ATOM      1  O   UNL     1       2.143   0.825   0.000  0.00  0.00    +0.000 OA
ATOM      2  C   UNL     1       2.143   0.000   0.000  0.00  0.00    +0.000 A 
ATOM      3  C   UNL     1       1.429  -0.412   0.000  0.00  0.00    +0.000 A 
ATOM      4  C   UNL     1       2.858  -0.412   0.000  0.00  0.00    +0.000 A 
ATOM      5  C   UNL     1       1.429  -1.238   0.000  0.00  0.00    +0.000 A 
ATOM      6  C   UNL     1       2.858  -1.238   0.000  0.00  0.00    +0.000 A 
ATOM      7  C   UNL     1       3.572   0.000   0.000  0.00  0.00    +0.000 A 
ATOM      8  O   UNL     1       2.143  -1.650   0.000  0.00  0.00    +0.000 OA
ATOM      9  C   UNL     1       3.572  -1.650   0.000  0.00  0.00    +0.000 A 
ATOM     10  C   UNL     1       4.287  -0.412   0.000  0.00  0.00    +0.000 A 
ATOM     11  C   UNL     1       4.287  -1.238   0.000  0.00  0.00    +0.000 A 
ENDROOT
BRANCH   5  12
ATOM     12  C   UNL     1       0.715  -1.650   0.000  0.00  0.00    +0.000 A 
ATOM     13  C   UNL     1       0.000  -1.238   0.000  0.00  0.00    +0.000 A 
ATOM     14  C   UNL     1       0.715  -2.475   0.000  0.00  0.00    +0.000 A 
ATOM     15  O   UNL     1       0.000  -0.412   0.000  0.00  0.00    +0.000 OA
ATOM     16  C   UNL     1      -0.715  -1.650   0.000  0.00  0.00    +0.000 A 
ATOM     17  C   UNL     1       0.000  -2.888   0.000  0.00  0.00    +0.000 A 
ATOM     18  C   UNL     1      -0.715  -2.475   0.000  0.00  0.00    +0.000 A 
ENDBRANCH   5  12
BRANCH   3  19
ATOM     19  O   UNL     1       0.715   0.000   0.000  0.00  0.00    +0.000 OA
ATOM     20  C   UNL     1       0.715   0.825   0.000  0.00  0.00    +0.000 C 
ENDBRANCH   3  19
BRANCH   7  21
ATOM     21  O   UNL     1       3.572   0.825   0.000  0.00  0.00    +0.000 OA
ATOM     22  C   UNL     1       2.858   1.238   0.000  0.00  0.00    +0.000 C 
ENDBRANCH   7  21
BRANCH   9  23
ATOM     23  O   UNL     1       3.572  -2.475   0.000  0.00  0.00    +0.000 OA
ATOM     24  C   UNL     1       4.287  -2.888   0.000  0.00  0.00    +0.000 C 
ENDBRANCH   9  23
BRANCH  11  25
ATOM     25  O   UNL     1       5.001  -1.650   0.000  0.00  0.00    +0.000 OA
ATOM     26  C   UNL     1       5.716  -1.238   0.000  0.00  0.00    +0.000 C 
ENDBRANCH  11  25
TORSDOF 5
