REMARK  Name = 
REMARK  0 active torsions:
REMARK  status: ('A' for Active; 'I' for Inactive)
REMARK                            x       y       z     vdW  Elec       q    Type
REMARK                         _______ _______ _______ _____ _____    ______ ____
ROOT
ATOM      1  C   UNL     1      18.108 -11.044   0.000  0.00  0.00    +0.000 A 
ATOM      2  C   UNL     1      18.928 -10.958   0.000  0.00  0.00    +0.000 A 
ATOM      3  C   UNL     1      19.263 -10.204   0.000  0.00  0.00    +0.000 A 
ATOM      4  C   UNL     1      18.779  -9.537   0.000  0.00  0.00    +0.000 A 
ATOM      5  C   UNL     1      17.958  -9.623   0.000  0.00  0.00    +0.000 A 
ATOM      6  C   UNL     1      17.622 -10.377   0.000  0.00  0.00    +0.000 A 
ATOM      7  O   UNL     1      16.802 -10.291   0.000  0.00  0.00    +0.000 OA
ATOM      8  C   UNL     1      16.630  -9.484   0.000  0.00  0.00    +0.000 C 
ATOM      9  C   UNL     1      15.916  -9.071   0.000  0.00  0.00    +0.000 A 
ATOM     10  C   UNL     1      15.201  -9.484   0.000  0.00  0.00    +0.000 A 
ATOM     11  C   UNL     1      14.487  -9.071   0.000  0.00  0.00    +0.000 A 
ATOM     12  C   UNL     1      14.487  -8.246   0.000  0.00  0.00    +0.000 A 
ATOM     13  C   UNL     1      15.201  -7.834   0.000  0.00  0.00    +0.000 A 
ATOM     14  C   UNL     1      15.916  -8.246   0.000  0.00  0.00    +0.000 A 
ATOM     15  O   UNL     1      16.630  -7.834   0.000  0.00  0.00    +0.000 OA
ATOM     16  C   UNL     1      17.345  -8.246   0.000  0.00  0.00    +0.000 C 
ATOM     17  C   UNL     1      17.345  -9.071   0.000  0.00  0.00    +0.000 C 
ATOM     18  *   UNL     1      17.971  -8.691   0.000  0.00  0.00    +0.000   
ATOM     19  *   UNL     1      19.114  -8.783   0.000  0.00  0.00    +0.000   
ATOM     20  *   UNL     1      20.084 -10.118   0.000  0.00  0.00    +0.000   
ATOM     21  *   UNL     1      19.413 -11.626   0.000  0.00  0.00    +0.000   
ATOM     22  *   UNL     1      17.772 -11.798   0.000  0.00  0.00    +0.000   
ATOM     23  *   UNL     1      15.201  -7.009   0.000  0.00  0.00    +0.000   
ATOM     24  *   UNL     1      13.772  -7.834   0.000  0.00  0.00    +0.000   
ATOM     25  *   UNL     1      13.773  -9.484   0.000  0.00  0.00    +0.000   
ATOM     26  *   UNL     1      15.201 -10.309   0.000  0.00  0.00    +0.000   
ATOM     27  *   UNL     1      17.757  -7.532   0.000  0.00  0.00    +0.000   
ATOM     28  *   UNL     1      18.170  -8.246   0.000  0.00  0.00    +0.000   
ATOM     29  *   UNL     1      15.914  -9.900   0.000  0.00  0.00    +0.000   
ENDROOT
TORSDOF 0
