REMARK  Name = 
REMARK  1 active torsions:
REMARK  status: ('A' for Active; 'I' for Inactive)
REMARK    1  A    between atoms: C_11  and  C_12
REMARK                            x       y       z     vdW  Elec       q    Type
REMARK                         _______ _______ _______ _____ _____    ______ ____
ROOT
ATOM      1  C   UNL     1      -1.519  -1.278   0.000  0.00  0.00    +0.000 A 
ATOM      2  C   UNL     1      -2.227  -1.697   0.000  0.00  0.00    +0.000 A 
ATOM      3  C   UNL     1      -1.515  -0.456   0.000  0.00  0.00    +0.000 A 
ATOM      4  C   UNL     1      -0.735  -1.539   0.000  0.00  0.00    +0.000 C 
ATOM      5  C   UNL     1      -2.942  -1.281   0.000  0.00  0.00    +0.000 A 
ATOM      6  O   UNL     1      -0.728  -0.205   0.000  0.00  0.00    +0.000 OA
ATOM      7  C   UNL     1      -2.227  -0.044   0.000  0.00  0.00    +0.000 A 
ATOM      8  C   UNL     1      -0.251  -0.875   0.000  0.00  0.00    +0.000 C 
ATOM      9  O   UNL     1      -0.488  -2.326   0.000  0.00  0.00    +0.000 OA
ATOM     10  C   UNL     1      -2.945  -0.456   0.000  0.00  0.00    +0.000 A 
ATOM     11  C   UNL     1       0.571  -0.880   0.000  0.00  0.00    +0.000 C 
ATOM     12  *   UNL     1      -2.225   0.781   0.000  0.00  0.00    +0.000   
ATOM     13  *   UNL     1      -3.660  -0.044   0.000  0.00  0.00    +0.000   
ATOM     14  *   UNL     1      -3.656  -1.694   0.000  0.00  0.00    +0.000   
ATOM     15  *   UNL     1      -2.224  -2.522   0.000  0.00  0.00    +0.000   
ATOM     16  *   UNL     1       0.979  -1.597   0.000  0.00  0.00    +0.000   
ENDROOT
BRANCH  11  17
ATOM     17  C   UNL     1       0.985  -0.172   0.000  0.00  0.00    +0.000 A 
ATOM     18  C   UNL     1       1.808  -0.177   0.000  0.00  0.00    +0.000 A 
ATOM     19  C   UNL     1       2.225   0.535   0.000  0.00  0.00    +0.000 A 
ATOM     20  C   UNL     1       1.817   1.252   0.000  0.00  0.00    +0.000 A 
ATOM     21  C   UNL     1       0.994   1.257   0.000  0.00  0.00    +0.000 A 
ATOM     22  C   UNL     1       0.577   0.545   0.000  0.00  0.00    +0.000 A 
ATOM     23  *   UNL     1      -0.248   0.549   0.000  0.00  0.00    +0.000   
ATOM     24  *   UNL     1       0.586   1.974   0.000  0.00  0.00    +0.000   
ATOM     25  *   UNL     1       2.234   1.964   0.000  0.00  0.00    +0.000   
ATOM     26  *   UNL     1       3.050   0.530   0.000  0.00  0.00    +0.000   
ATOM     27  *   UNL     1       2.217  -0.894   0.000  0.00  0.00    +0.000   
ENDBRANCH  11  17
TORSDOF 1
