REMARK  Name = 
REMARK  0 active torsions:
REMARK  status: ('A' for Active; 'I' for Inactive)
REMARK                            x       y       z     vdW  Elec       q    Type
REMARK                         _______ _______ _______ _____ _____    ______ ____
ROOT
ATOM      1  C   UNL     1       7.338 -20.501   0.000  0.00  0.00    +0.000 A 
ATOM      2  C   UNL     1       7.003 -19.747   0.000  0.00  0.00    +0.000 A 
ATOM      3  C   UNL     1       7.488 -19.080   0.000  0.00  0.00    +0.000 A 
ATOM      4  C   UNL     1       8.308 -19.166   0.000  0.00  0.00    +0.000 A 
ATOM      5  C   UNL     1       8.644 -19.920   0.000  0.00  0.00    +0.000 A 
ATOM      6  C   UNL     1       8.159 -20.587   0.000  0.00  0.00    +0.000 A 
ATOM      7  O   UNL     1       8.644 -21.255   0.000  0.00  0.00    +0.000 OA
ATOM      8  C   UNL     1       9.428 -21.000   0.000  0.00  0.00    +0.000 A 
ATOM      9  C   UNL     1      10.143 -21.412   0.000  0.00  0.00    +0.000 A 
ATOM     10  C   UNL     1      10.143 -22.237   0.000  0.00  0.00    +0.000 A 
ATOM     11  C   UNL     1      10.857 -22.650   0.000  0.00  0.00    +0.000 A 
ATOM     12  C   UNL     1      11.572 -22.237   0.000  0.00  0.00    +0.000 A 
ATOM     13  C   UNL     1      11.572 -21.412   0.000  0.00  0.00    +0.000 A 
ATOM     14  C   UNL     1      10.857 -21.000   0.000  0.00  0.00    +0.000 A 
ATOM     15  O   UNL     1      10.857 -20.175   0.000  0.00  0.00    +0.000 OA
ATOM     16  C   UNL     1      10.143 -19.762   0.000  0.00  0.00    +0.000 C 
ATOM     17  C   UNL     1       9.428 -20.175   0.000  0.00  0.00    +0.000 A 
ATOM     18  *   UNL     1       7.152 -18.326   0.000  0.00  0.00    +0.000   
ATOM     19  *   UNL     1       8.793 -18.499   0.000  0.00  0.00    +0.000   
ATOM     20  *   UNL     1       6.182 -19.661   0.000  0.00  0.00    +0.000   
ATOM     21  *   UNL     1       6.853 -21.168   0.000  0.00  0.00    +0.000   
ATOM     22  *   UNL     1      10.143 -18.937   0.000  0.00  0.00    +0.000   
ATOM     23  *   UNL     1      12.286 -21.000   0.000  0.00  0.00    +0.000   
ATOM     24  *   UNL     1      12.286 -22.650   0.000  0.00  0.00    +0.000   
ATOM     25  *   UNL     1      10.857 -23.475   0.000  0.00  0.00    +0.000   
ATOM     26  *   UNL     1       9.428 -22.650   0.000  0.00  0.00    +0.000   
ATOM     27  *   UNL     1       9.428 -19.350   0.000  0.00  0.00    +0.000   
ENDROOT
TORSDOF 0
