REMARK  Name = null
REMARK  3 active torsions:
REMARK  status: ('A' for Active; 'I' for Inactive)
REMARK    1  A    between atoms: C_6  and  C_7
REMARK    2  A    between atoms: C_14  and  C_20
REMARK    3  A    between atoms: C_24  and  C_26
REMARK                            x       y       z     vdW  Elec       q    Type
REMARK                         _______ _______ _______ _____ _____    ______ ____
ROOT
ATOM      1  C   UNL     1      -0.715  -0.412   0.000  0.00  0.00    +0.000 A 
ATOM      2  C   UNL     1      -0.715  -1.238   0.000  0.00  0.00    +0.000 A 
ATOM      3  C   UNL     1       0.000  -1.650   0.000  0.00  0.00    +0.000 A 
ATOM      4  O   UNL     1       0.000  -2.475   0.000  0.00  0.00    +0.000 OA
ATOM      5  C   UNL     1       0.715  -1.238   0.000  0.00  0.00    +0.000 A 
ATOM      6  C   UNL     1       0.715  -0.412   0.000  0.00  0.00    +0.000 A 
ATOM      7  O   UNL     1       0.000   0.000   0.000  0.00  0.00    +0.000 OA
ATOM      8  C   UNL     1       1.429   0.000   0.000  0.00  0.00    +0.000 A 
ATOM      9  C   UNL     1       2.143  -0.412   0.000  0.00  0.00    +0.000 A 
ATOM     10  C   UNL     1       2.143  -1.238   0.000  0.00  0.00    +0.000 A 
ATOM     11  C   UNL     1       1.429  -1.650   0.000  0.00  0.00    +0.000 A 
ATOM     12  O   UNL     1       1.429  -2.475   0.000  0.00  0.00    +0.000 OA
ATOM     13  O   UNL     1       2.858   0.000   0.000  0.00  0.00    +0.000 OA
ENDROOT
BRANCH   8  14
ATOM     14  C   UNL     1       1.429   0.825   0.000  0.00  0.00    +0.000 C 
ATOM     15  C   UNL     1       0.715   1.238   0.000  0.00  0.00    +0.000 C 
ATOM     16  C   UNL     1       0.715   2.062   0.000  0.00  0.00    +0.000 C 
ATOM     17  C   UNL     1       1.429   2.475   0.000  0.00  0.00    +0.000 C 
ATOM     18  C   UNL     1       2.143   2.062   0.000  0.00  0.00    +0.000 C 
ATOM     19  O   UNL     1       2.143   1.238   0.000  0.00  0.00    +0.000 OA
ATOM     20  O   UNL     1       1.429   3.300   0.000  0.00  0.00    +0.000 OA
ATOM     21  O   UNL     1       0.000   2.475   0.000  0.00  0.00    +0.000 OA
ATOM     22  O   UNL     1       0.000   0.825   0.000  0.00  0.00    +0.000 OA
BRANCH  18  23
ATOM     23  C   UNL     1       2.858   2.475   0.000  0.00  0.00    +0.000 C 
ATOM     24  O   UNL     1       2.858   3.300   0.000  0.00  0.00    +0.000 OA
ENDBRANCH  18  23
ENDBRANCH   8  14
BRANCH   1  30
ATOM     25  C   UNL     1      -2.143  -0.412   0.000  0.00  0.00    +0.000 A 
ATOM     26  C   UNL     1      -2.858   0.000   0.000  0.00  0.00    +0.000 A 
ATOM     27  C   UNL     1      -2.858   0.825   0.000  0.00  0.00    +0.000 A 
ATOM     28  C   UNL     1      -2.143   1.238   0.000  0.00  0.00    +0.000 A 
ATOM     29  C   UNL     1      -1.429   0.825   0.000  0.00  0.00    +0.000 A 
ATOM     30  C   UNL     1      -1.429   0.000   0.000  0.00  0.00    +0.000 A 
ATOM     31  O   UNL     1      -3.572   1.238   0.000  0.00  0.00    +0.000 OA
ENDBRANCH   1  30
TORSDOF 3
