REMARK  Name = null
REMARK  7 active torsions:
REMARK  status: ('A' for Active; 'I' for Inactive)
REMARK    1  A    between atoms: C_6  and  O_8
REMARK    2  A    between atoms: O_8  and  C_9
REMARK    3  A    between atoms: C_9  and  C_10
REMARK    4  A    between atoms: C_14  and  O_16
REMARK    5  A    between atoms: O_16  and  C_17
REMARK    6  A    between atoms: C_24  and  C_28
REMARK    7  A    between atoms: C_31  and  O_34
REMARK                            x       y       z     vdW  Elec       q    Type
REMARK                         _______ _______ _______ _____ _____    ______ ____
ROOT
ATOM      1  C   UNL     1      -2.143   2.062   0.000  0.00  0.00    +0.000 C 
ATOM      2  C   UNL     1      -1.429   2.475   0.000  0.00  0.00    +0.000 C 
ATOM      3  C   UNL     1      -0.715   2.062   0.000  0.00  0.00    +0.000 C 
ATOM      4  C   UNL     1      -0.715   1.238   0.000  0.00  0.00    +0.000 C 
ATOM      5  C   UNL     1      -1.429   0.825   0.000  0.00  0.00    +0.000 C 
ATOM      6  O   UNL     1      -2.143   1.238   0.000  0.00  0.00    +0.000 OA
ATOM      7  O   UNL     1       0.000   0.825   0.000  0.00  0.00    +0.000 OA
ATOM      8  O   UNL     1       0.000   2.475   0.000  0.00  0.00    +0.000 OA
ATOM      9  O   UNL     1      -1.429   3.300   0.000  0.00  0.00    +0.000 OA
ENDROOT
BRANCH   1  10
ATOM     10  C   UNL     1      -2.858   2.475   0.000  0.00  0.00    +0.000 C 
BRANCH  10  11
ATOM     11  O   UNL     1      -2.858   3.300   0.000  0.00  0.00    +0.000 OA
BRANCH  11  17
ATOM     12  C   UNL     1      -5.716   3.300   0.000  0.00  0.00    +0.000 C 
ATOM     13  C   UNL     1      -5.001   3.712   0.000  0.00  0.00    +0.000 C 
ATOM     14  C   UNL     1      -5.001   4.537   0.000  0.00  0.00    +0.000 C 
ATOM     15  C   UNL     1      -4.287   4.950   0.000  0.00  0.00    +0.000 C 
ATOM     16  C   UNL     1      -3.572   4.537   0.000  0.00  0.00    +0.000 C 
ATOM     17  C   UNL     1      -3.572   3.712   0.000  0.00  0.00    +0.000 C 
ATOM     18  O   UNL     1      -4.287   3.300   0.000  0.00  0.00    +0.000 OA
ATOM     19  O   UNL     1      -2.858   4.950   0.000  0.00  0.00    +0.000 OA
ATOM     20  O   UNL     1      -4.287   5.775   0.000  0.00  0.00    +0.000 OA
ATOM     21  O   UNL     1      -5.716   4.950   0.000  0.00  0.00    +0.000 OA
ENDBRANCH  11  17
ENDBRANCH  10  11
ENDBRANCH   1  10
BRANCH   5  22
ATOM     22  O   UNL     1      -1.429   0.000   0.000  0.00  0.00    +0.000 OA
BRANCH  22  23
ATOM     23  C   UNL     1      -0.715  -0.412   0.000  0.00  0.00    +0.000 A 
ATOM     24  C   UNL     1      -0.715  -1.238   0.000  0.00  0.00    +0.000 A 
ATOM     25  C   UNL     1       0.000  -1.650   0.000  0.00  0.00    +0.000 A 
ATOM     26  C   UNL     1       0.715  -1.238   0.000  0.00  0.00    +0.000 A 
ATOM     27  C   UNL     1       0.715  -0.412   0.000  0.00  0.00    +0.000 A 
ATOM     28  C   UNL     1       0.000   0.000   0.000  0.00  0.00    +0.000 A 
ATOM     29  O   UNL     1       1.429   0.000   0.000  0.00  0.00    +0.000 OA
ATOM     30  C   UNL     1       2.143  -0.412   0.000  0.00  0.00    +0.000 A 
ATOM     31  C   UNL     1       2.143  -1.238   0.000  0.00  0.00    +0.000 A 
ATOM     32  C   UNL     1       1.429  -1.650   0.000  0.00  0.00    +0.000 A 
ATOM     33  O   UNL     1       1.429  -2.475   0.000  0.00  0.00    +0.000 OA
ATOM     34  O   UNL     1       0.000  -2.475   0.000  0.00  0.00    +0.000 OA
BRANCH  30  35
ATOM     35  C   UNL     1       2.858   0.000   0.000  0.00  0.00    +0.000 A 
ATOM     36  C   UNL     1       2.858   0.825   0.000  0.00  0.00    +0.000 A 
ATOM     37  C   UNL     1       3.572   1.238   0.000  0.00  0.00    +0.000 A 
ATOM     38  C   UNL     1       4.287   0.825   0.000  0.00  0.00    +0.000 A 
ATOM     39  C   UNL     1       4.287   0.000   0.000  0.00  0.00    +0.000 A 
ATOM     40  C   UNL     1       3.572  -0.412   0.000  0.00  0.00    +0.000 A 
BRANCH  38  41
ATOM     41  O   UNL     1       5.001   1.238   0.000  0.00  0.00    +0.000 OA
ATOM     42  C   UNL     1       5.716   0.825   0.000  0.00  0.00    +0.000 C 
ENDBRANCH  38  41
ENDBRANCH  30  35
ENDBRANCH  22  23
ENDBRANCH   5  22
TORSDOF 7
