REMARK  Name = null
REMARK  7 active torsions:
REMARK  status: ('A' for Active; 'I' for Inactive)
REMARK    1  A    between atoms: O_2  and  C_3
REMARK    2  A    between atoms: C_4  and  O_28
REMARK    3  A    between atoms: C_6  and  C_9
REMARK    4  A    between atoms: C_10  and  O_26
REMARK    5  A    between atoms: C_14  and  O_24
REMARK    6  A    between atoms: C_15  and  O_22
REMARK    7  A    between atoms: C_16  and  O_20
REMARK                            x       y       z     vdW  Elec       q    Type
REMARK                         _______ _______ _______ _____ _____    ______ ____
ROOT
ATOM      1  C   UNL     1       0.715  -1.238   0.000  0.00  0.00    +0.000 A 
ATOM      2  C   UNL     1       0.715  -0.412   0.000  0.00  0.00    +0.000 A 
ATOM      3  C   UNL     1       1.429   0.000   0.000  0.00  0.00    +0.000 A 
ATOM      4  O   UNL     1       1.429   0.825   0.000  0.00  0.00    +0.000 OA
ATOM      5  C   UNL     1       2.143  -0.412   0.000  0.00  0.00    +0.000 A 
ATOM      6  C   UNL     1       2.858   0.000   0.000  0.00  0.00    +0.000 A 
ATOM      7  C   UNL     1       3.572  -0.412   0.000  0.00  0.00    +0.000 A 
ATOM      8  C   UNL     1       3.572  -1.238   0.000  0.00  0.00    +0.000 A 
ATOM      9  C   UNL     1       2.858  -1.650   0.000  0.00  0.00    +0.000 A 
ATOM     10  C   UNL     1       2.143  -1.238   0.000  0.00  0.00    +0.000 A 
ATOM     11  O   UNL     1       1.429  -1.650   0.000  0.00  0.00    +0.000 OA
ENDROOT
BRANCH   1  15
ATOM     12  C   UNL     1      -1.429  -2.475   0.000  0.00  0.00    +0.000 A 
ATOM     13  C   UNL     1      -1.429  -1.650   0.000  0.00  0.00    +0.000 A 
ATOM     14  C   UNL     1      -0.715  -1.238   0.000  0.00  0.00    +0.000 A 
ATOM     15  C   UNL     1       0.000  -1.650   0.000  0.00  0.00    +0.000 A 
ATOM     16  C   UNL     1       0.000  -2.475   0.000  0.00  0.00    +0.000 A 
ATOM     17  C   UNL     1      -0.715  -2.888   0.000  0.00  0.00    +0.000 A 
BRANCH  12  19
ATOM     18  C   UNL     1      -2.143  -3.712   0.000  0.00  0.00    +0.000 C 
ATOM     19  O   UNL     1      -2.143  -2.888   0.000  0.00  0.00    +0.000 OA
ENDBRANCH  12  19
BRANCH  13  20
ATOM     20  O   UNL     1      -2.143  -1.238   0.000  0.00  0.00    +0.000 OA
ATOM     21  C   UNL     1      -2.143  -0.412   0.000  0.00  0.00    +0.000 C 
ENDBRANCH  13  20
ENDBRANCH   1  15
BRANCH   8  22
ATOM     22  O   UNL     1       4.287  -1.650   0.000  0.00  0.00    +0.000 OA
ATOM     23  C   UNL     1       4.287  -2.475   0.000  0.00  0.00    +0.000 C 
ENDBRANCH   8  22
BRANCH   7  24
ATOM     24  O   UNL     1       4.287   0.000   0.000  0.00  0.00    +0.000 OA
ATOM     25  C   UNL     1       4.287   0.825   0.000  0.00  0.00    +0.000 C 
ENDBRANCH   7  24
BRANCH   6  26
ATOM     26  O   UNL     1       2.858   0.825   0.000  0.00  0.00    +0.000 OA
ATOM     27  C   UNL     1       3.572   1.238   0.000  0.00  0.00    +0.000 C 
ENDBRANCH   6  26
BRANCH   2  28
ATOM     28  O   UNL     1       0.000   0.000   0.000  0.00  0.00    +0.000 OA
ATOM     29  C   UNL     1       0.000   0.825   0.000  0.00  0.00    +0.000 C 
ENDBRANCH   2  28
TORSDOF 7
