REMARK  Name = null
REMARK  4 active torsions:
REMARK  status: ('A' for Active; 'I' for Inactive)
REMARK    1  A    between atoms: O_2  and  C_3
REMARK    2  A    between atoms: C_6  and  C_9
REMARK    3  A    between atoms: N_12  and  C_13
REMARK    4  A    between atoms: C_16  and  O_19
REMARK                            x       y       z     vdW  Elec       q    Type
REMARK                         _______ _______ _______ _____ _____    ______ ____
ROOT
ATOM      1  C   UNL     1      -0.715  -0.412   0.000  0.00  0.00    +0.000 A 
ATOM      2  C   UNL     1      -0.715  -1.238   0.000  0.00  0.00    +0.000 A 
ATOM      3  C   UNL     1       0.000  -1.650   0.000  0.00  0.00    +0.000 A 
ATOM      4  N   UNL     1       0.000  -2.475   0.000  0.00  0.00    +0.000 NA
ATOM      5  C   UNL     1       0.715  -1.238   0.000  0.00  0.00    +0.000 A 
ATOM      6  C   UNL     1       0.715  -0.412   0.000  0.00  0.00    +0.000 A 
ATOM      7  O   UNL     1       0.000   0.000   0.000  0.00  0.00    +0.000 OA
ATOM      8  C   UNL     1       1.429   0.000   0.000  0.00  0.00    +0.000 A 
ATOM      9  C   UNL     1       2.143  -0.412   0.000  0.00  0.00    +0.000 A 
ATOM     10  C   UNL     1       2.143  -1.238   0.000  0.00  0.00    +0.000 A 
ATOM     11  C   UNL     1       1.429  -1.650   0.000  0.00  0.00    +0.000 A 
ATOM     12  O   UNL     1       2.858  -1.650   0.000  0.00  0.00    +0.000 OA
ENDROOT
BRANCH   1  16
ATOM     13  C   UNL     1      -2.858   0.825   0.000  0.00  0.00    +0.000 A 
ATOM     14  C   UNL     1      -2.143   1.238   0.000  0.00  0.00    +0.000 A 
ATOM     15  C   UNL     1      -1.429   0.825   0.000  0.00  0.00    +0.000 A 
ATOM     16  C   UNL     1      -1.429   0.000   0.000  0.00  0.00    +0.000 A 
ATOM     17  C   UNL     1      -2.143  -0.412   0.000  0.00  0.00    +0.000 A 
ATOM     18  C   UNL     1      -2.858   0.000   0.000  0.00  0.00    +0.000 A 
BRANCH  13  20
ATOM     19  C   UNL     1      -4.287   0.825   0.000  0.00  0.00    +0.000 C 
ATOM     20  O   UNL     1      -3.572   1.238   0.000  0.00  0.00    +0.000 OA
ENDBRANCH  13  20
ENDBRANCH   1  16
BRANCH   4  21
ATOM     21  C   UNL     1      -0.715  -2.888   0.000  0.00  0.00    +0.000 A 
ATOM     22  C   UNL     1      -0.715  -3.712   0.000  0.00  0.00    +0.000 A 
ATOM     23  C   UNL     1      -1.429  -4.125   0.000  0.00  0.00    +0.000 A 
ATOM     24  C   UNL     1      -2.143  -3.712   0.000  0.00  0.00    +0.000 A 
ATOM     25  C   UNL     1      -2.143  -2.888   0.000  0.00  0.00    +0.000 A 
ATOM     26  C   UNL     1      -1.429  -2.475   0.000  0.00  0.00    +0.000 A 
BRANCH  24  27
ATOM     27  O   UNL     1      -2.858  -4.125   0.000  0.00  0.00    +0.000 OA
ATOM     28  C   UNL     1      -2.858  -4.950   0.000  0.00  0.00    +0.000 C 
ENDBRANCH  24  27
ENDBRANCH   4  21
TORSDOF 4
