REMARK  Name = null
REMARK  7 active torsions:
REMARK  status: ('A' for Active; 'I' for Inactive)
REMARK    1  A    between atoms: C_6  and  O_8
REMARK    2  A    between atoms: O_8  and  C_9
REMARK    3  A    between atoms: C_9  and  C_10
REMARK    4  A    between atoms: C_14  and  O_16
REMARK    5  A    between atoms: O_16  and  C_17
REMARK    6  A    between atoms: C_24  and  C_28
REMARK    7  A    between atoms: C_31  and  O_34
REMARK                            x       y       z     vdW  Elec       q    Type
REMARK                         _______ _______ _______ _____ _____    ______ ____
ROOT
ATOM      1  O   UNL     1       0.000  -1.650   0.000  0.00  0.00    +0.000 OA
ENDROOT
BRANCH   1   2
ATOM      2  C   UNL     1       0.715  -1.238   0.000  0.00  0.00    +0.000 A 
ATOM      3  C   UNL     1       0.715  -0.412   0.000  0.00  0.00    +0.000 A 
ATOM      4  C   UNL     1       1.429   0.000   0.000  0.00  0.00    +0.000 A 
ATOM      5  C   UNL     1       2.143  -0.412   0.000  0.00  0.00    +0.000 A 
ATOM      6  C   UNL     1       2.858   0.000   0.000  0.00  0.00    +0.000 C 
ATOM      7  O   UNL     1       2.858   0.825   0.000  0.00  0.00    +0.000 OA
ATOM      8  C   UNL     1       3.572  -0.412   0.000  0.00  0.00    +0.000 C 
ATOM      9  C   UNL     1       3.572  -1.238   0.000  0.00  0.00    +0.000 C 
ATOM     10  O   UNL     1       2.858  -1.650   0.000  0.00  0.00    +0.000 OA
ATOM     11  C   UNL     1       2.143  -1.238   0.000  0.00  0.00    +0.000 A 
ATOM     12  C   UNL     1       1.429  -1.650   0.000  0.00  0.00    +0.000 A 
ATOM     13  O   UNL     1       1.429   0.825   0.000  0.00  0.00    +0.000 OA
BRANCH   9  14
ATOM     14  C   UNL     1       4.287  -1.650   0.000  0.00  0.00    +0.000 A 
ATOM     15  C   UNL     1       5.001  -1.238   0.000  0.00  0.00    +0.000 A 
ATOM     16  C   UNL     1       5.716  -1.650   0.000  0.00  0.00    +0.000 A 
ATOM     17  C   UNL     1       5.716  -2.475   0.000  0.00  0.00    +0.000 A 
ATOM     18  C   UNL     1       5.001  -2.888   0.000  0.00  0.00    +0.000 A 
ATOM     19  C   UNL     1       4.287  -2.475   0.000  0.00  0.00    +0.000 A 
ATOM     20  O   UNL     1       6.430  -1.238   0.000  0.00  0.00    +0.000 OA
BRANCH  17  21
ATOM     21  O   UNL     1       6.430  -2.888   0.000  0.00  0.00    +0.000 OA
ATOM     22  C   UNL     1       6.430  -3.712   0.000  0.00  0.00    +0.000 C 
ENDBRANCH  17  21
ENDBRANCH   9  14
ENDBRANCH   1   2
BRANCH   1  27
ATOM     23  C   UNL     1      -2.143  -1.238   0.000  0.00  0.00    +0.000 C 
ATOM     24  C   UNL     1      -2.143  -0.412   0.000  0.00  0.00    +0.000 C 
ATOM     25  C   UNL     1      -1.429   0.000   0.000  0.00  0.00    +0.000 C 
ATOM     26  C   UNL     1      -0.715  -0.412   0.000  0.00  0.00    +0.000 C 
ATOM     27  C   UNL     1      -0.715  -1.238   0.000  0.00  0.00    +0.000 C 
ATOM     28  O   UNL     1      -1.429  -1.650   0.000  0.00  0.00    +0.000 OA
ATOM     29  O   UNL     1       0.000   0.000   0.000  0.00  0.00    +0.000 OA
ATOM     30  O   UNL     1      -1.429   0.825   0.000  0.00  0.00    +0.000 OA
ATOM     31  O   UNL     1      -2.858   0.000   0.000  0.00  0.00    +0.000 OA
BRANCH  23  32
ATOM     32  C   UNL     1      -2.858  -1.650   0.000  0.00  0.00    +0.000 C 
BRANCH  32  33
ATOM     33  O   UNL     1      -3.572  -1.238   0.000  0.00  0.00    +0.000 OA
BRANCH  33  39
ATOM     34  C   UNL     1      -5.001  -3.712   0.000  0.00  0.00    +0.000 C 
ATOM     35  C   UNL     1      -5.001  -2.888   0.000  0.00  0.00    +0.000 C 
ATOM     36  C   UNL     1      -5.716  -2.475   0.000  0.00  0.00    +0.000 C 
ATOM     37  C   UNL     1      -5.716  -1.650   0.000  0.00  0.00    +0.000 C 
ATOM     38  C   UNL     1      -5.001  -1.238   0.000  0.00  0.00    +0.000 C 
ATOM     39  C   UNL     1      -4.287  -1.650   0.000  0.00  0.00    +0.000 C 
ATOM     40  O   UNL     1      -4.287  -2.475   0.000  0.00  0.00    +0.000 OA
ATOM     41  O   UNL     1      -5.001  -0.412   0.000  0.00  0.00    +0.000 OA
ATOM     42  O   UNL     1      -6.430  -1.238   0.000  0.00  0.00    +0.000 OA
ATOM     43  O   UNL     1      -6.430  -2.888   0.000  0.00  0.00    +0.000 OA
ENDBRANCH  33  39
ENDBRANCH  32  33
ENDBRANCH  23  32
ENDBRANCH   1  27
TORSDOF 7
